data_LNSGYCo_Pm21_final_afterisodistort
_gsas_GSASII_version  5817
_pd_block_id
   2025-08-07T19:21|LNSGYCo_Pm21_final_afterisodistort|noname|D8
_audit_creation_method  "created in GSAS-II"
_audit_creation_date  2025-08-07T19:21
_audit_author_name  "no name"
_audit_update_record
   "2025-08-07T19:21  Initial software-generated CIF"
_refine_ls_weighting_scheme  sigma
_pd_proc_info_datetime  2025-08-07T19:21
_pd_calc_method  "Rietveld Refinement"
_computing_structure_refinement
   "GSAS-II (Toby & Von Dreele, J. Appl. Cryst. 46, 544-549, 2013)"
_refine_ls_matrix_type  full
_refine_ls_number_parameters  11
_refine_ls_goodness_of_fit_all  0.109
_refine_ls_shift/su_max   2.1227
_refine_ls_shift/su_mean  0.3090
_refine_ls_number_restraints  0
_refine_ls_number_constraints  0

# OVERALL WEIGHTED R-FACTOR
_refine_ls_wR_factor_obs  0.09258

# phase info for LNSGYCO_final_HE follows
_pd_phase_name  LNSGYCO_final_HE
_cell_length_a  5.30037(9)
_cell_length_b  7.51585(12)
_cell_length_c  5.36051(8)
_cell_angle_alpha  90
_cell_angle_beta   89.986(12)
_cell_angle_gamma  90
_cell_volume  213.546(4)
_exptl_crystal_density_diffrn  7.5543
_symmetry_cell_setting  monoclinic
_space_group_name_H-M_alt  "P 21/m"
_space_group_name_Hall  "-P 2yb"
loop_
    _space_group_symop_id
    _space_group_symop_operation_xyz
     1  x,y,z
     2  -x,1/2+y,-z
     3  -x,-y,-z
     4  x,1/2-y,z

# ATOMIC COORDINATES AND DISPLACEMENT PARAMETERS
loop_ 
   _atom_site_label
   _atom_site_type_symbol
   _atom_site_fract_x
   _atom_site_fract_y
   _atom_site_fract_z
   _atom_site_occupancy
   _atom_site_adp_type
   _atom_site_U_iso_or_equiv
   _atom_site_site_symmetry_multiplicity
Co1_1  Co   0.00000     0.00000     0.50000     1.0000     Uiso 0.0095(9)  2   
Co1_2  Co   0.50000     0.00000     0.00000     1.0000     Uiso 0.0095(9)  2   
O1_1   O    0.57997     0.25000     0.98544     1.0000     Uiso 0.012(5)   2   
O1_2   O    -0.07657    0.25000     0.49470     1.0000     Uiso 0.012(5)   2   
O2_1   O    0.79488     -0.03534    0.22992     1.0000     Uiso 0.028(3)   4   
O2_2   O    0.25614     0.47239     0.29624     1.0000     Uiso 0.028(3)   4   
Sm1_1  Sm   0.00679     0.25000     0.04722     0.2000     Uiso 0.0114(30) 2   
Sm1_2  Sm   0.48446     0.25000     0.53903     0.2000     Uiso 0.0128(31) 2   
La1_1  La   0.00679     0.25000     0.04722     0.2000     Uiso 0.0114(30) 2   
Nd1_1  Nd   0.00679     0.25000     0.04722     0.2000     Uiso 0.0114(30) 2   
Gd1_1  Gd   0.00679     0.25000     0.04722     0.2000     Uiso 0.0114(30) 2   
Y1_1   Y    0.00679     0.25000     0.04722     0.2000     Uiso 0.0114(30) 2   
La1_2  La   0.48446     0.25000     0.53903     0.2000     Uiso 0.0128(31) 2   
Nd1_2  Nd   0.48446     0.25000     0.53903     0.2000     Uiso 0.0128(31) 2   
Gd1_2  Gd   0.48446     0.25000     0.53903     0.2000     Uiso 0.0128(31) 2   
Y1_2   Y    0.48446     0.25000     0.53903     0.2000     Uiso 0.0128(31) 2   

loop_  _atom_type_symbol _atom_type_number_in_cell
        _atom_type_scat_Cromer_Mann_a1 _atom_type_scat_Cromer_Mann_a2 _atom_type_scat_Cromer_Mann_a3
        _atom_type_scat_Cromer_Mann_a4 _atom_type_scat_Cromer_Mann_b1 _atom_type_scat_Cromer_Mann_b2
        _atom_type_scat_Cromer_Mann_b3 _atom_type_scat_Cromer_Mann_b4 _atom_type_scat_Cromer_Mann_c
        _atom_type_scat_length_neutron _atom_type_scat_source
        _atom_type_scat_dispersion_real _atom_type_scat_dispersion_imag _atom_type_scat_dispersion_source
  Co      4      12.2841    7.3409     4.0034     2.3488     4.2791     0.2784     13.5359    71.1692    1.0118     0.249
      https://raw.githubusercontent.com/AdvancedPhotonSource/GSAS-II/refs/heads/main/GSASII/atmdata.py
    -2.365   3.614   https://raw.githubusercontent.com/AdvancedPhotonSource/GSAS-II/refs/heads/main/GSASII/atmdata.py
  Gd      0.8    25.0709    19.0798    13.8518    3.5455     2.2534     0.182      12.9331    101.398    2.4196     0
      https://raw.githubusercontent.com/AdvancedPhotonSource/GSAS-II/refs/heads/main/GSASII/atmdata.py
    -8.877  11.987   https://raw.githubusercontent.com/AdvancedPhotonSource/GSAS-II/refs/heads/main/GSASII/atmdata.py
  La      0.8    20.578     19.599     11.3727    3.2872     2.9482     0.2445     18.7726    133.124    2.1468     0.824
      https://raw.githubusercontent.com/AdvancedPhotonSource/GSAS-II/refs/heads/main/GSASII/atmdata.py
    -1.418   9.034   https://raw.githubusercontent.com/AdvancedPhotonSource/GSAS-II/refs/heads/main/GSASII/atmdata.py
  Nd      0.8    22.6845    19.6847    12.774     2.8514     2.6625     0.2106     15.885     137.903    1.9849     0.769
      https://raw.githubusercontent.com/AdvancedPhotonSource/GSAS-II/refs/heads/main/GSASII/atmdata.py
    -3.098  10.931   https://raw.githubusercontent.com/AdvancedPhotonSource/GSAS-II/refs/heads/main/GSASII/atmdata.py
  O       12     3.0485     2.2868     1.5463     0.867      13.2771    5.7011     0.3239     32.9089    0.2508     0.5804
      https://raw.githubusercontent.com/AdvancedPhotonSource/GSAS-II/refs/heads/main/GSASII/atmdata.py
     0.049   0.032   https://raw.githubusercontent.com/AdvancedPhotonSource/GSAS-II/refs/heads/main/GSASII/atmdata.py
  Sm      0.8    24.0042    19.4258    13.4396    2.896      2.4727     0.1965     14.3996    128.007    2.2096     0
      https://raw.githubusercontent.com/AdvancedPhotonSource/GSAS-II/refs/heads/main/GSASII/atmdata.py
    -5.308  12.309   https://raw.githubusercontent.com/AdvancedPhotonSource/GSAS-II/refs/heads/main/GSASII/atmdata.py
  Y       0.8    17.776     10.2946    5.7263     3.2659     1.4029     12.8006    0.1256     104.354    1.9121     0.775
      https://raw.githubusercontent.com/AdvancedPhotonSource/GSAS-II/refs/heads/main/GSASII/atmdata.py
    -0.267   2.024   https://raw.githubusercontent.com/AdvancedPhotonSource/GSAS-II/refs/heads/main/GSASII/atmdata.py

# Note that Z affects _cell_formula_sum and _weight
_cell_formula_units_Z  2
_chemical_formula_sum  "Co2 Gd0.4 La0.4 Nd0.4 O6 Sm0.4 Y0.4"
_chemical_formula_weight  485.74

# MOLECULAR GEOMETRY
loop_
   _geom_bond_atom_site_label_1
   _geom_bond_atom_site_label_2
   _geom_bond_distance
   _geom_bond_site_symmetry_1
   _geom_bond_site_symmetry_2
   _geom_bond_publ_flag
  Co1_1  O1_2   1.9225       1_555    1_555 yes
  Co1_1  O1_2   1.9225       1_555    2_546 yes
  Co1_1  O2_1   1.83013      1_555    1_455 yes
  Co1_1  O2_1   1.83013      1_555    3_656 yes
  Co1_1  O2_2   1.75457      1_555    2_546 yes
  Co1_1  O2_2   1.75457      1_555    4_555 yes
  Co1_2  O1_1   1.92776      1_555    1_554 yes
  Co1_2  O1_1   1.92776      1_555    2_646 yes
  Co1_2  O2_1   2.00834      1_555    1_555 yes
  Co1_2  O2_1   2.00834      1_555    3_655 yes
  Co1_2  O2_2   2.05778      1_555    2_645 yes
  Co1_2  O2_2   2.05778      1_555    4_555 yes
  O1_1   Co1_2  1.92776      1_555    1_556 yes
  O1_1   Co1_2  1.92776      1_555    2_656 yes
  O1_1   Sm1_1  2.2865       1_555    1_656 yes
  O1_1   Sm1_2  2.44607      1_555    1_555 yes
  O1_2   Co1_1  1.9225       1_555    1_555 yes
  O1_2   Co1_1  1.9225       1_555    2_556 yes
  O1_2   Sm1_1  2.43897      1_555    1_555 yes
  O1_2   Sm1_2  2.33875      1_555    1_455 yes
  O2_1   Co1_1  1.83013      1_555    1_655 yes
  O2_1   Co1_2  2.00834      1_555    1_555 yes
  O2_1   Sm1_1  2.61139      1_555    1_655 yes
  O2_1   Sm1_1  2.43192      1_555    2_645 yes
  O2_1   Sm1_2  2.51559      1_555    2_646 yes
  O2_2   Co1_1  1.75457      1_555    2_556 yes
  O2_2   Co1_2  2.05778      1_555    2_655 yes
  O2_2   Sm1_1  2.51461      1_555    1_555 yes
  O2_2   Sm1_2  2.43986      1_555    1_555 yes
  O2_2   La1_2  2.65031      1_555    2_656 yes
  Sm1_1  O1_1   2.2865       1_555    1_454 yes
  Sm1_1  O1_2   2.43897      1_555    1_555 yes
  Sm1_1  O2_1   2.61139      1_555    1_455 yes
  Sm1_1  O2_1   2.43192      1_555    2_655 yes
  Sm1_1  O2_1   2.43192      1_555    3_655 yes
  Sm1_1  O2_1   2.61139      1_555    4_455 yes
  Sm1_1  O2_2   2.51461      1_555    1_555 yes
  Sm1_1  O2_2   2.51461      1_555    4_555 yes
  Sm1_2  O1_1   2.44607      1_555    1_555 yes
  Sm1_2  O1_2   2.33875      1_555    1_655 yes
  Sm1_2  O2_1   2.51559      1_555    2_656 yes
  Sm1_2  O2_1   2.51559      1_555    3_656 yes
  Sm1_2  O2_2   2.43986      1_555    1_555 yes
  Sm1_2  O2_2   2.43986      1_555    4_555 yes
  La1_1  O1_1   2.2865       1_555    1_454 yes
  La1_1  O1_2   2.43897      1_555    1_555 yes
  La1_1  O2_1   2.61139      1_555    1_455 yes
  La1_1  O2_1   2.43192      1_555    2_655 yes
  La1_1  O2_1   2.43192      1_555    3_655 yes
  La1_1  O2_1   2.61139      1_555    4_455 yes
  La1_1  O2_2   2.51461      1_555    1_555 yes
  La1_1  O2_2   2.51461      1_555    4_555 yes
  Nd1_1  O1_1   2.2865       1_555    1_454 yes
  Nd1_1  O1_2   2.43897      1_555    1_555 yes
  Nd1_1  O2_1   2.61139      1_555    1_455 yes
  Nd1_1  O2_1   2.43192      1_555    2_655 yes
  Nd1_1  O2_1   2.43192      1_555    3_655 yes
  Nd1_1  O2_1   2.61139      1_555    4_455 yes
  Nd1_1  O2_2   2.51461      1_555    1_555 yes
  Nd1_1  O2_2   2.51461      1_555    4_555 yes
  Gd1_1  O1_1   2.2865       1_555    1_454 yes
  Gd1_1  O1_2   2.43897      1_555    1_555 yes
  Gd1_1  O2_1   2.61139      1_555    1_455 yes
  Gd1_1  O2_1   2.43192      1_555    2_655 yes
  Gd1_1  O2_1   2.43192      1_555    3_655 yes
  Gd1_1  O2_1   2.61139      1_555    4_455 yes
  Gd1_1  O2_2   2.51461      1_555    1_555 yes
  Gd1_1  O2_2   2.51461      1_555    4_555 yes
  Y1_1   O1_1   2.2865       1_555    1_454 yes
  Y1_1   O1_2   2.43897      1_555    1_555 yes
  Y1_1   O2_1   2.61139      1_555    1_455 yes
  Y1_1   O2_1   2.43192      1_555    2_655 yes
  Y1_1   O2_1   2.43192      1_555    3_655 yes
  Y1_1   O2_1   2.61139      1_555    4_455 yes
  Y1_1   O2_2   2.51461      1_555    1_555 yes
  Y1_1   O2_2   2.51461      1_555    4_555 yes
  La1_2  O1_1   2.44607      1_555    1_555 yes
  La1_2  O1_2   2.33875      1_555    1_655 yes
  La1_2  O2_1   2.51559      1_555    2_656 yes
  La1_2  O2_1   2.51559      1_555    3_656 yes
  La1_2  O2_2   2.43986      1_555    1_555 yes
  La1_2  O2_2   2.65031      1_555    2_646 yes
  La1_2  O2_2   2.65031      1_555    3_666 yes
  La1_2  O2_2   2.43986      1_555    4_555 yes
  Nd1_2  O1_1   2.44607      1_555    1_555 yes
  Nd1_2  O1_2   2.33875      1_555    1_655 yes
  Nd1_2  O2_1   2.51559      1_555    2_656 yes
  Nd1_2  O2_1   2.51559      1_555    3_656 yes
  Nd1_2  O2_2   2.43986      1_555    1_555 yes
  Nd1_2  O2_2   2.43986      1_555    4_555 yes
  Gd1_2  O1_1   2.44607      1_555    1_555 yes
  Gd1_2  O1_2   2.33875      1_555    1_655 yes
  Gd1_2  O2_1   2.51559      1_555    2_656 yes
  Gd1_2  O2_1   2.51559      1_555    3_656 yes
  Gd1_2  O2_2   2.43986      1_555    1_555 yes
  Gd1_2  O2_2   2.43986      1_555    4_555 yes
  Y1_2   O1_1   2.44607      1_555    1_555 yes
  Y1_2   O1_2   2.33875      1_555    1_655 yes
  Y1_2   O2_1   2.51559      1_555    2_656 yes
  Y1_2   O2_1   2.51559      1_555    3_656 yes
  Y1_2   O2_2   2.43986      1_555    1_555 yes
  Y1_2   O2_2   2.43986      1_555    4_555 yes

loop_
   _geom_angle_atom_site_label_1
   _geom_angle_atom_site_label_2
   _geom_angle_atom_site_label_3
   _geom_angle
   _geom_angle_site_symmetry_1
   _geom_angle_site_symmetry_2
   _geom_angle_site_symmetry_3
   _geom_angle_publ_flag
  O2_2   Co1_1  O2_2   180           2_546  1_555    4_555 yes
_pd_proc_ls_pref_orient_corr
   "March-Dollase correction coef. = 1.000 axis = [0, 0, 1]"
_pd_proc_ls_profile_function
;
Finger-Cox-Jephcoat function parameters U, V, W, X, Y, SH/L:
  peak variance(Gauss) = Utan(Th)^2^+Vtan(Th)+W:
  peak HW(Lorentz) = X/cos(Th)+Ytan(Th); SH/L = S/L+H/L
  U, V, W in (centideg)^2^, X & Y in centideg
    96.869, -44.521, 16.519, 0.000, 0.000, 0.002, 

;
_diffrn_radiation_type  "Cu K\a~1,2~"
loop_
   _diffrn_radiation_wavelength
   _diffrn_radiation_wavelength_wt
   _diffrn_radiation_wavelength_id
  1.54051         1.0             1     
  1.54433         0.5000          2     
_refine_ls_R_F_factor        0.08167
_refine_ls_R_Fsqd_factor     0.05002
_pd_proc_ls_prof_R_factor     0.07003
_pd_proc_ls_prof_wR_factor    0.09258
_gsas_proc_ls_prof_R_B_factor   0.07881
_gsas_proc_ls_prof_wR_B_factor  0.09725
_pd_proc_ls_prof_wR_expected  0.85154
_diffrn_radiation_probe  x-ray
_diffrn_radiation_polarisn_ratio  0.7000
_pd_proc_ls_background_function
;
Background function: "chebyschev-1" function with 30 terms:
    0.905, -0.231, 0.152, -0.090, 0.039, -0.024, 0.004, -0.009, 
    -0.016, -0.003, 0.017, 0.003, -0.004, 0.012, -0.003, -0.012, 
    0.010, 0.020, -0.015, -0.006, 0.008, -0.009, -0.008, 0.009, 
    -0.006, -0.003, 0.008, 0.008, -0.011, 0.005, 
;
_diffrn_ambient_temperature  300
_diffrn_ambient_pressure  100

# STRUCTURE FACTOR TABLE
loop_
   _refln_index_h
   _refln_index_k
   _refln_index_l
   _refln_F_squared_meas
   _refln_F_squared_calc
   _refln_phase_calc
   _refln_d_spacing
   _gsas_i100_meas
  0    0    1    334.0515   35.4062    180.0   5.36051  1.46   
  1    0    0    467.3787   56.8772    0.0     5.30037  2.00   
  0    1    1    34.5268    6.4852     180.0   4.36421  0.20   
  1    1    0    200.0556   114.5708   -180.0  4.33157  1.14   
  1    0    1    5888.2988  5114.1443  0.0     3.76948  12.59  
  1    0    -1   5647.8096  4958.8629  0.0     3.76854  12.07  
  0    2    0    6378.5854  6242.4666  -180.0  3.75792  13.56  
  1    1    1    1835.1537  1778.6662  180.0   3.36945  6.23   
  1    1    -1   2908.9672  2847.8842  -0.0    3.36878  9.88   
  0    2    1    143.9041   7.4257     180.0   3.07711  0.41   
  1    2    0    133.8292   19.3761    -0.0    3.06560  0.37   
  0    0    2    43751.2630 41639.2673 0.0     2.68025  46.20  
  1    2    1    48060.8258 47816.2084 -180.0  2.66133  100.00 
  1    2    -1   46835.6464 46538.5461 180.0   2.66100  97.43  
  2    0    0    46208.2812 46346.0181 0.0     2.65019  47.65  
  0    1    2    5838.0904  6318.7604  180.0   2.52453  10.88  
  2    1    0    10.6425    43.1086    -0.0    2.49936  0.02   
  1    0    2    3.8327     4.7852     0.0     2.39208  0.00   
  1    0    -2   247.4447   293.6216   180.0   2.39160  0.21   
  2    0    1    306.6333   124.2034   0.0     2.37594  0.25   
  2    0    -1   40.1726    16.3265    180.0   2.37547  0.03   
  1    1    2    29.4531    14.8856    180.0   2.27942  0.04   
  1    1    -2   433.2717   220.0724   0.0     2.27900  0.65   
  0    3    1    44.2928    36.5222    -0.0    2.26964  0.07   
  2    1    1    2036.5802  1827.9595  180.0   2.26544  3.02   
  1    3    0    435.2765   389.3564   -180.0  2.26501  0.65   
  2    1    -1   1291.3899  1155.3310  -180.0  2.26503  1.91   
  0    2    2    13940.4904 12872.5961 180.0   2.18210  19.10  
  2    2    0    16213.1830 15853.0328 180.0   2.16579  21.87  
  1    3    1    2151.7327  1770.6993  0.0     2.08649  2.68   
  1    3    -1   2830.1496  2325.2435  -180.0  2.08633  3.53   
  1    2    2    352.2798   330.6594   -0.0    2.01794  0.41   
  1    2    -2   403.5376   373.8522   180.0   2.01765  0.47   
  2    2    1    309.2922   267.9469   -0.0    2.00822  0.36   
  2    2    -1   138.7888   120.8663   180.0   2.00794  0.16   
  2    0    2    54514.6133 51740.0175 0.0     1.88474  27.38  
  2    0    -2   49206.5181 46929.1370 0.0     1.88427  24.70  
  0    4    0    60287.4225 61392.3971 -0.0    1.87896  30.09  
  0    3    2    6703.1228  6115.9613  0.0     1.83024  6.33   
  2    1    2    4547.9342  4286.2657  -180.0  1.82814  4.28   
  2    1    -2   7182.9176  6820.4421  0.0     1.82771  6.76   
  2    3    0    102.0240   140.5293   -180.0  1.82057  0.10   
  0    0    3    2.0097     5.9788     180.0   1.78684  0.00   
  0    4    1    5.5130     6.0783     180.0   1.77319  0.00   
  1    4    0    8.0798     9.5563     -0.0    1.77098  0.01   
  3    0    0    21.5935    34.2344    180.0   1.76679  0.01   
  0    1    3    54.3048    61.1998    -180.0  1.73838  0.05   
  1    3    2    389.9824   519.4801   0.0     1.73009  0.33   
  1    3    -2   39.0287    52.6082    0.0     1.72991  0.03   
  2    3    1    765.4871   1140.2480  0.0     1.72396  0.64   
  2    3    -1   516.3268   771.3238   -0.0    1.72378  0.43   
  3    1    0    55.2746    108.6562   180.0   1.71991  0.05   
  1    0    3    213.4744   343.1359   0.0     1.69334  0.09   
  1    0    -3   294.1174   462.7987   0.0     1.69308  0.12   
  2    2    2    2264.8816  2196.7924  -180.0  1.68473  1.80   
  2    2    -2   1791.8740  1736.1929  -180.0  1.68439  1.42   
  1    4    1    3399.2139  3379.1239  -0.0    1.68162  2.68   
  1    4    -1   3687.3410  3667.0446  0.0     1.68154  2.91   
  3    0    1    4802.3323  5093.8736  0.0     1.67812  1.89   
  3    0    -1   3383.8542  3610.8284  0.0     1.67787  1.33   
  1    1    3    10055.0268 9685.1176  -180.0  1.65193  7.65   
  1    1    -3   11040.3998 10633.3433 -0.0    1.65169  8.40   
  3    1    1    663.8185   752.9901   -180.0  1.63779  0.50   
  3    1    -1   2003.4243  2269.4440  0.0     1.63756  1.50   
  0    2    3    292.0869   146.9058   -0.0    1.61371  0.21   
  3    2    0    653.0817   112.8375   180.0   1.59890  0.46   
  1    2    3    20210.6747 18938.8766 180.0   1.54384  13.36  
  1    2    -3   18035.9472 16878.0816 -180.0  1.54365  11.92  
  0    4    2    30060.9473 27017.6368 0.0     1.53855  19.73  
  2    4    0    31183.0906 30544.4022 0.0     1.53280  20.31  
  3    2    1    30837.1728 30385.0260 180.0   1.53229  20.08  
  3    2    -1   32178.3058 31663.9163 180.0   1.53210  20.94  
  2    3    2    2771.5482  3189.0600  -0.0    1.50612  1.74   
  2    3    -2   3380.4308  3898.7920  180.0   1.50588  2.12   
  2    0    3    456.5714   760.5790   180.0   1.48172  0.14   
  2    0    -3   15.8100    28.2603    0.0     1.48137  0.00   
  1    4    2    2.8420     8.5540     -180.0  1.47762  0.00   
  1    4    -2   9.5180     29.0738    180.0   1.47751  0.01   
  3    0    2    70.8048    249.1879   180.0   1.47530  0.02   
  3    0    -2   257.5772   854.2044   0.0     1.47496  0.08   
  2    4    1    4.3984     10.1465    -0.0    1.47379  0.00   
  2    4    -1   1.8892     4.2007     0.0     1.47368  0.00   
  0    3    3    4.0713     12.4494    -0.0    1.45474  0.00   
  2    1    3    230.7342   806.6466   180.0   1.45374  0.14   
  2    1    -3   67.0769    238.8412   180.0   1.45341  0.04   
  3    1    2    116.0590   416.7249   -180.0  1.44767  0.07   
  0    5    1    0.5534     1.8533     -180.0  1.44734  0.00   
  3    1    -2   12.4685    41.8759    -180.0  1.44735  0.01   
  1    5    0    162.6033   411.2335   -180.0  1.44614  0.09   
  3    3    0    233.3764   528.8749   0.0     1.44386  0.13   
  1    3    3    7084.0271  6930.9307  -0.0    1.40293  3.86   
  1    3    -3   8663.5531  8453.8302  -180.0  1.40279  4.72   
  1    5    1    565.0892   660.7913   180.0   1.39625  0.31   
  1    5    -1   1015.2987  1187.7030  -0.0    1.39620  0.55   
  3    3    1    248.4291   263.3351   -0.0    1.39424  0.13   
  3    3    -1   1301.7065  1345.1399  180.0   1.39410  0.70   
  2    2    3    112.8039   50.5497    0.0     1.37844  0.06   
  2    2    -3   28.7008    13.6610    -180.0  1.37816  0.02   
  3    2    2    119.4563   169.3088   -0.0    1.37327  0.06   
  3    2    -2   6.9850     10.2457    -180.0  1.37299  0.00   
  0    0    4    12855.4143 15870.7787 0.0     1.34013  3.21   
  2    4    2    26959.5948 27931.7564 -0.0    1.33067  13.30  
  2    4    -2   24732.2697 25630.7946 -0.0    1.33050  12.19  
  4    0    0    25123.0437 28159.3631 0.0     1.32509  6.15   
  0    1    4    9895.2050  10254.4751 -180.0  1.31932  4.80   
  0    5    2    1494.5400  2719.0765  180.0   1.31106  0.72   
  2    5    0    2.9815     6.1635     -0.0    1.30750  0.00   
  4    1    0    60.8230    183.1141   0.0     1.30497  0.03   
  1    0    4    317.0650   780.0300   180.0   1.29932  0.07   
  1    0    -4   75.7544    184.7210   0.0     1.29917  0.02   
  0    4    3    4.9927     8.4414     -180.0  1.29483  0.00   
  3    4    0    0.3951     0.7423     180.0   1.28714  0.00   
  4    0    1    151.9407   247.5884   180.0   1.28645  0.04   
  4    0    -1   193.1181   309.6071   0.0     1.28630  0.04   
  1    1    4    29.9852    81.8604    -180.0  1.28033  0.01   
  1    1    -4   15.3208    40.1817    -0.0    1.28018  0.01   
  2    3    3    329.3145   845.6957   0.0     1.27535  0.15   
  2    3    -3   66.4964    165.1415   0.0     1.27514  0.03   
  1    5    2    17.5036    48.1022    0.0     1.27274  0.01   
  1    5    -2   104.8183   287.2353   0.0     1.27267  0.05   
  3    3    2    38.7560    101.4485   -0.0    1.27126  0.02   
  3    3    -2   10.6809    27.9299    -180.0  1.27104  0.00   
  2    5    1    293.9704   763.4758   180.0   1.27029  0.13   
  2    5    -1   172.1066   446.7761   -180.0  1.27022  0.08   
  4    1    1    586.2959   1883.7715  -180.0  1.26801  0.27   
  4    1    -1   364.1371   1178.4744  180.0   1.26786  0.16   
  0    2    4    10.8115    33.6304    -180.0  1.26227  0.00   
  1    4    3    355.4890   463.2458   0.0     1.25789  0.16   
  1    4    -3   308.1689   398.4631   -0.0    1.25779  0.14   
  3    0    3    1003.0636  1176.6057  0.0     1.25649  0.22   
  3    0    -3   601.6313   687.1029   0.0     1.25618  0.13   
  0    6    0    4467.6414  4759.2264  -180.0  1.25264  0.99   
  3    4    1    3426.2269  3677.5303  -0.0    1.25162  1.51   
  3    4    -1   2560.9251  2756.4454  0.0     1.25151  1.13   
  4    2    0    1776.7261  2073.6356  -180.0  1.24968  0.78   
  3    1    3    4354.3294  4719.6959  180.0   1.23929  1.89   
  3    1    -3   6502.9387  7064.7864  -0.0    1.23899  2.83   
  1    2    4    78.1725    71.1210    0.0     1.22799  0.03   
  1    2    -4   201.2212   181.8902   -0.0    1.22786  0.09   
  0    6    1    8.1587     1.2893     180.0   1.21978  0.00   
  1    6    0    5.1387     0.8079     -180.0  1.21906  0.00   
  4    2    1    199.1766   32.5280    180.0   1.21711  0.08   
  4    2    -1   141.8002   23.1077    -180.0  1.21698  0.06   
_reflns_number_total  143
_reflns_limit_h_min  0
_reflns_limit_h_max  4
_reflns_limit_k_min  0
_reflns_limit_k_max  6
_reflns_limit_l_min  -4
_reflns_limit_l_max  4
_reflns_d_resolution_low    5.361
_reflns_d_resolution_high   1.217

# POWDER DATA TABLE
_pd_meas_2theta_range_min  10.00000
_pd_meas_2theta_range_max  79.94840
_pd_meas_2theta_range_inc  0.02045
_pd_proc_2theta_range_min  9.97905
_pd_proc_2theta_range_max  79.92745
_pd_proc_2theta_range_inc  0.02045
_pd_proc_number_of_points  3421

loop_
   _pd_meas_intensity_total
   _pd_calc_intensity_total
   _pd_proc_intensity_bkg_calc
   _pd_proc_ls_weight
  1.51822917   1.4112743    1.4112743   0.6586621 
  1.4453125    1.42129408   1.42129408  0.6918919 
  1.34114583   1.42979694   1.42979694  0.7456311 
  1.42447917   1.43691047   1.43691047  0.702011  
  1.55208333   1.44275434   1.44275434  0.6442953 
  1.48697917   1.44744066   1.44744066  0.6725044 
  1.45052083   1.45107434   1.45107434  0.6894075 
  1.3828125    1.45375348   1.45375348  0.7231638 
  1.46614583   1.4555697    1.4555697   0.6820604 
  1.38802083   1.45660849   1.45660849  0.7204503 
  1.46875      1.45694949   1.45694949  0.6808511 
  1.44010417   1.45666683   1.45666683  0.6943942 
  1.47135417   1.45582941   1.45582941  0.679646  
  1.4921875    1.45450116   1.45450116  0.6701571 
  1.4375       1.45274134   1.45274134  0.6956522 
  1.47395833   1.45060476   1.45060476  0.6784452 
  1.46614583   1.44814207   1.44814207  0.6820604 
  1.546875     1.44539995   1.44539995  0.6464646 
  1.421875     1.44242135   1.44242135  0.7032967 
  1.4609375    1.4392457    1.4392457   0.684492  
  1.39583333   1.43590913   1.43590913  0.7164179 
  1.36979167   1.43244464   1.43244464  0.730038  
  1.421875     1.42888231   1.42888231  0.7032967 
  1.44010417   1.42524946   1.42524946  0.6943942 
  1.4296875    1.42157082   1.42157082  0.6994536 
  1.40625      1.4178687    1.4178687   0.7111111 
  1.359375     1.41416315   1.41416315  0.7356322 
  1.44270833   1.41047208   1.41047208  0.6931408 
  1.359375     1.40681141   1.40681141  0.7356322 
  1.41145833   1.40319523   1.40319523  0.7084871 
  1.46614583   1.39963589   1.39963589  0.6820604 
  1.48697917   1.39614414   1.39614414  0.6725044 
  1.45833333   1.39272921   1.39272921  0.6857143 
  1.36197917   1.38939899   1.38939899  0.7342256 
  1.48958333   1.38616005   1.38616005  0.6713287 
  1.30729167   1.38301778   1.38301778  0.7649402 
  1.4453125    1.37997649   1.37997649  0.6918919 
  1.2734375    1.37703948   1.37703948  0.7852761 
  1.33854167   1.37420911   1.37420911  0.7470817 
  1.41145833   1.37148691   1.37148691  0.7084871 
  1.46614583   1.36887364   1.36887364  0.6820604 
  1.29166667   1.36636932   1.36636932  0.7741935 
  1.44010417   1.36397339   1.36397339  0.6943942 
  1.390625     1.36168465   1.36168465  0.7191011 
  1.47395833   1.35950144   1.35950144  0.6784452 
  1.35677083   1.3574216    1.3574216   0.7370441 
  1.24479167   1.35544256   1.35544256  0.8033473 
  1.35416667   1.3535614    1.3535614   0.7384615 
  1.28385417   1.35177488   1.35177488  0.7789047 
  1.3125       1.35007946   1.35007946  0.7619048 
  1.32291667   1.34847139   1.34847139  0.7559055 
  1.42708333   1.3469467    1.3469467   0.7007299 
  1.28385417   1.34550127   1.34550127  0.7789047 
  1.29947917   1.34413084   1.34413084  0.7695391 
  1.34635417   1.34283103   1.34283103  0.7427466 
  1.48177083   1.34159741   1.34159741  0.6748682 
  1.36979167   1.34042548   1.34042548  0.730038  
  1.42447917   1.33931072   1.33931072  0.702011  
  1.3671875    1.33824859   1.33824859  0.7314286 
  1.38541667   1.33723458   1.33723458  0.7218045 
  1.24739583   1.33626422   1.33626422  0.8016701 
  1.38802083   1.33533306   1.33533306  0.7204503 
  1.296875     1.33443673   1.33443673  0.7710843 
  1.29166667   1.33357095   1.33357095  0.7741935 
  1.44010417   1.33273151   1.33273151  0.6943942 
  1.39583333   1.3319143    1.3319143   0.7164179 
  1.42447917   1.33111534   1.33111534  0.702011  
  1.29947917   1.33033076   1.33033076  0.7695391 
  1.3671875    1.32955681   1.32955681  0.7314286 
  1.31770833   1.32879069   1.32878989  0.7588933 
  1.31770833   1.32802734   1.32802653  0.7588933 
  1.40104167   1.32726462   1.32726341  0.7137546 
  1.38802083   1.32649857   1.32649734  0.7204503 
  1.3828125    1.32572656   1.32572532  0.7231638 
  1.21354167   1.32494572   1.32494448  0.8240343 
  1.3515625    1.32415335   1.3241521   0.7398844 
  1.37239583   1.3233469    1.32334563  0.7286528 
  1.32552083   1.32252397   1.32252269  0.7544204 
  1.25         1.32168359   1.32168104  0.8       
  1.34114583   1.32082118   1.32081861  0.7456311 
  1.39583333   1.3199367    1.31993347  0.7164179 
  1.36979167   1.31902712   1.31902387  0.730038  
  1.27083333   1.31809148   1.31808821  0.7868852 
  1.25520833   1.31712832   1.31712501  0.7966805 
  1.34114583   1.31613633   1.316133    0.7456311 
  1.328125     1.31511435   1.31511099  0.7529412 
  1.27864583   1.31406138   1.314058    0.7820774 
  1.28645833   1.31297655   1.31297313  0.7773279 
  1.34375      1.31185911   1.31185566  0.744186  
  1.35416667   1.31070847   1.310705    0.7384615 
  1.30729167   1.30952416   1.30952065  0.7649402 
  1.4765625    1.30830583   1.3083023   0.6772487 
  1.33333333   1.30705326   1.3070497   0.75      
  1.15364583   1.30576635   1.30576276  0.8668172 
  1.33333333   1.3044451    1.30444148  0.75      
  1.33072917   1.30308964   1.30308598  0.7514677 
  1.27864583   1.30170017   1.30169648  0.7820774 
  1.296875     1.30027703   1.30027331  0.7710843 
  1.2265625    1.29882062   1.29881686  0.8152866 
  1.22135417   1.29733145   1.29732766  0.8187633 
  1.23177083   1.29581011   1.29580629  0.8118393 
  1.32552083   1.29425728   1.29425342  0.7544204 
  1.27604167   1.29267369   1.29266981  0.7836735 
  1.32291667   1.29106018   1.29105626  0.7559055 
  1.2109375    1.28941763   1.28941367  0.8258065 
  1.28125      1.28774699   1.28774299  0.7804878 
  1.203125     1.28604926   1.28604523  0.8311688 
  1.20833333   1.28432551   1.28432144  0.8275862 
  1.28125      1.28257685   1.28257274  0.7804878 
  1.22916667   1.28080443   1.28080029  0.8135593 
  1.30729167   1.27900946   1.27900528  0.7649402 
  1.22916667   1.27719317   1.27718895  0.8135593 
  1.2421875    1.27535682   1.27535256  0.8050314 
  1.29427083   1.27350171   1.27349741  0.7726358 
  1.30729167   1.27162916   1.27162482  0.7649402 
  1.296875     1.26974052   1.26973614  0.7710843 
  1.32552083   1.26783715   1.26783272  0.7544204 
  1.31510417   1.26592041   1.26591595  0.760396  
  1.33072917   1.2639917    1.26398719  0.7514677 
  1.26822917   1.26205241   1.26204786  0.788501  
  1.23697917   1.26010393   1.26009934  0.8084211 
  1.27083333   1.25814767   1.25814303  0.7868852 
  1.20572917   1.25618502   1.25618034  0.8293737 
  1.19010417   1.25421738   1.25421264  0.8402626 
  1.2578125    1.25224612   1.25224134  0.7950311 
  1.34114583   1.25027262   1.2502678   0.7456311 
  1.26041667   1.24829826   1.24829338  0.7933884 
  1.27604167   1.24632436   1.24631943  0.7836735 
  1.23697917   1.24435227   1.24434729  0.8084211 
  1.28385417   1.2423833    1.24237827  0.7789047 
  1.2421875    1.24041873   1.24041365  0.8050314 
  1.26041667   1.23845983   1.2384547   0.7933884 
  1.16927083   1.23650786   1.23650267  0.8552339 
  1.25         1.23456401   1.23455877  0.8       
  1.33333333   1.23262948   1.23262419  0.75      
  1.19791667   1.23070542   1.23070007  0.8347826 
  1.1171875    1.22879297   1.22878756  0.8951049 
  1.23697917   1.2268932    1.22688774  0.8084211 
  1.27604167   1.2250072    1.22500168  0.7836735 
  1.18229167   1.22313597   1.22313039  0.845815  
  1.1875       1.2212805    1.22127486  0.8421053 
  1.15885417   1.21944176   1.21943606  0.8629213 
  1.34114583   1.21762065   1.21761489  0.7456311 
  1.22916667   1.21581805   1.21581223  0.8135593 
  1.234375     1.2140348    1.21402892  0.8101266 
  1.2890625    1.2122717    1.21226575  0.7757576 
  1.15885417   1.21052951   1.21052349  0.8629213 
  1.2890625    1.20880894   1.20880285  0.7757576 
  1.20572917   1.20711068   1.20710452  0.8293737 
  1.36197917   1.20543536   1.20542913  0.7342256 
  1.27083333   1.20378357   1.20377727  0.7868852 
  1.16145833   1.20215588   1.20214951  0.8609865 
  1.1796875    1.2005528    1.20054636  0.8476821 
  1.18229167   1.19897481   1.19896829  0.845815  
  1.16666667   1.19742233   1.19741573  0.8571429 
  1.17447917   1.19589576   1.19588909  0.8514412 
  1.19791667   1.19439546   1.19438871  0.8347826 
  1.14583333   1.19292174   1.19291491  0.8727273 
  1.15364583   1.19147486   1.19146795  0.8668172 
  1.33333333   1.19005508   1.19004808  0.75      
  1.15104167   1.18866257   1.18865549  0.8687783 
  1.22135417   1.18729751   1.18729034  0.8187633 
  1.22135417   1.18596      1.18595275  0.8187633 
  1.296875     1.18465014   1.1846428   0.7710843 
  1.13541667   1.18336798   1.18336054  0.8807339 
  1.265625     1.18211351   1.18210598  0.7901235 
  1.140625     1.18088672   1.1808791   0.8767123 
  1.05729167   1.17968756   1.17967984  0.9458128 
  1.19010417   1.17851592   1.17850811  0.8402626 
  1.22916667   1.17737169   1.17736378  0.8135593 
  1.16666667   1.17625472   1.1762467   0.8571429 
  1.17708333   1.1751648    1.17515668  0.8495575 
  1.25520833   1.17410174   1.17409351  0.7966805 
  1.265625     1.17306528   1.17305694  0.7901235 
  1.15885417   1.17205514   1.1720467   0.8629213 
  1.32291667   1.17107103   1.17106248  0.7559055 
  1.23177083   1.17011262   1.17010395  0.8118393 
  1.21354167   1.16917956   1.16917077  0.8240343 
  1.16927083   1.16827147   1.16826256  0.8552339 
  1.1875       1.16738794   1.16737891  0.8421053 
  1.1796875    1.16652856   1.16651941  0.8476821 
  1.015625     1.16569288   1.1656836   0.9846154 
  1.13802083   1.16488043   1.16487102  0.8787185 
  1.18489583   1.16409073   1.16408119  0.843956  
  1.21614583   1.16332327   1.1633136   0.8222698 
  1.22916667   1.16257754   1.16256773  0.8135593 
  1.2578125    1.161853     1.16184305  0.7950311 
  1.15885417   1.16114909   1.16113899  0.8629213 
  1.234375     1.16046525   1.160455    0.8101266 
  1.17447917   1.15980089   1.1597905   0.8514412 
  1.24739583   1.15915543   1.15914488  0.8016701 
  1.15364583   1.15852825   1.15851754  0.8668172 
  1.16666667   1.15791874   1.15790788  0.8571429 
  1.15364583   1.15732629   1.15731526  0.8668172 
  1.14583333   1.15675024   1.15673904  0.8727273 
  1.21354167   1.15618997   1.1561786   0.8240343 
  1.25260417   1.15564482   1.15563327  0.7983368 
  1.25520833   1.15511414   1.15510241  0.7966805 
  1.04427083   1.15459727   1.15458536  0.957606  
  1.18489583   1.15409355   1.15408145  0.843956  
  1.25260417   1.15360231   1.15359001  0.7983368 
  1.05208333   1.15312288   1.15311039  0.950495  
  1.23177083   1.15265459   1.1526419   0.8118393 
  1.1953125    1.15219677   1.15218387  0.8366013 
  1.125        1.15174875   1.15173564  0.8888889 
  1.17708333   1.15130987   1.15129654  0.8495575 
  1.1875       1.15087944   1.15086589  0.8421053 
  1.10416667   1.15045682   1.15044303  0.9056604 
  1.17708333   1.15004132   1.1500273   0.8495575 
  1.07291667   1.1496323    1.14961804  0.9320388 
  1.11458333   1.1492291    1.14921459  0.8971963 
  1.20052083   1.14883107   1.14881631  0.8329718 
  1.1953125    1.14843757   1.14842255  0.8366013 
  1.28645833   1.14804796   1.14803267  0.7773279 
  1.171875     1.14766161   1.14764605  0.8533333 
  1.125        1.14727791   1.14726206  0.8888889 
  1.10677083   1.14689623   1.14688009  0.9035294 
  1.14322917   1.14651596   1.14649953  0.8747153 
  1.16666667   1.14613653   1.14611979  0.8571429 
  1.1875       1.14575734   1.14574028  0.8421053 
  1.140625     1.1453778    1.14536043  0.8767123 
  1.15364583   1.14499737   1.14497966  0.8668172 
  1.1015625    1.14461549   1.14459743  0.9078014 
  1.15625      1.14423161   1.1442132   0.8648649 
  1.11979167   1.1438452    1.14382643  0.8930233 
  1.18229167   1.14345575   1.14343661  0.845815  
  1.078125     1.14306276   1.14304322  0.9275362 
  1.17447917   1.14266572   1.14264579  0.8514412 
  1.12760417   1.14226416   1.14224382  0.886836  
  1.2734375    1.14185762   1.14183686  0.7852761 
  1.1796875    1.14144565   1.14142445  0.8476821 
  1.32552083   1.1410278    1.14100615  0.7544204 
  1.109375     1.14060366   1.14058154  0.9014085 
  1.18229167   1.14017282   1.14015022  0.845815  
  1.0859375    1.13973488   1.13971179  0.9208633 
  1.1171875    1.13928947   1.13926587  0.8951049 
  1.25260417   1.13883622   1.13881209  0.7983368 
  1.0703125    1.13837479   1.13835011  0.9343066 
  1.1875       1.13790485   1.1378796   0.8421053 
  1.15885417   1.13742606   1.13740023  0.8629213 
  1.2265625    1.13693814   1.13691171  0.8152866 
  1.07552083   1.1364408    1.13641374  0.9297821 
  1.203125     1.13593377   1.13590605  0.8311688 
  1.17447917   1.13541679   1.13538839  0.8514412 
  1.125        1.13488962   1.13486052  0.8888889 
  1.11197917   1.13435204   1.13432221  0.8992974 
  1.0546875    1.13380383   1.13377326  0.9481481 
  1.13020833   1.13324482   1.13321346  0.8847926 
  1.10416667   1.13267481   1.13264264  0.9056604 
  1.1015625    1.13209366   1.13206064  0.9078014 
  1.16666667   1.1315012    1.1314673   0.8571429 
  1.09375      1.13089731   1.1308625   0.9142857 
  1.109375     1.13028188   1.13024611  0.9014085 
  1.09375      1.1296548    1.12961804  0.9142857 
  1.09375      1.12901619   1.12897818  0.9142857 
  1.1015625    1.12836557   1.12832648  0.9078014 
  1.046875     1.12770309   1.12766287  0.9552239 
  1.04427083   1.12702881   1.1269873   0.957606  
  1.19791667   1.12634249   1.12629975  0.8347826 
  1.09635417   1.12564422   1.12560019  0.912114  
  1.08072917   1.124934     1.12488862  0.9253012 
  1.1171875    1.12421185   1.12416506  0.8951049 
  1.0703125    1.12348145   1.12342951  0.9343066 
  1.07291667   1.12273554   1.12268203  0.9320388 
  1.17708333   1.12197965   1.12192265  0.8495575 
  1.13541667   1.1212102    1.12115144  0.8807339 
  1.109375     1.12042907   1.12036847  0.9014085 
  1.10677083   1.11963637   1.11957383  0.9035294 
  1.02604167   1.11883219   1.11876761  0.9746193 
  1.1171875    1.11801664   1.11794991  0.8951049 
  1.12239583   1.11718987   1.11712087  0.8909513 
  1.0859375    1.11635199   1.11628061  0.9208633 
  1.09375      1.11550317   1.11542926  0.9142857 
  1.1171875    1.11464356   1.11456698  0.8951049 
  1.125        1.11377334   1.11369394  0.8888889 
  1.16145833   1.11289269   1.11281029  0.8609865 
  1.1953125    1.1120018    1.11191622  0.8366013 
  1.0859375    1.11110087   1.11101191  0.9208633 
  1.11979167   1.11019013   1.11009757  0.8930233 
  1.15625      1.10926979   1.10917339  0.8648649 
  1.06770833   1.10834008   1.1082396   0.9365854 
  1.08333333   1.10740126   1.1072964   0.9230769 
  1.078125     1.10645357   1.10634404  0.9275362 
  1.10416667   1.10549729   1.10538274  0.9056604 
  1.11458333   1.10453269   1.10441274  0.8971963 
  1.09895833   1.10356005   1.10343429  0.9099526 
  1.03125      1.10257967   1.10244765  0.969697  
  0.99479167   1.10159187   1.10145308  1.0052356 
  1.078125     1.10059696   1.10045083  0.9275362 
  0.96354167   1.09959528   1.09944119  1.0378378 
  1.02604167   1.09858718   1.09842442  0.9746193 
  1.08072917   1.09757302   1.0974008   0.9253012 
  1.13020833   1.0965532    1.09637062  0.8847926 
  1.0546875    1.09552811   1.09533416  0.9481481 
  1.17708333   1.0944982    1.09429171  0.8495575 
  1.15104167   1.09346391   1.09324356  0.8687783 
  1.13802083   1.09242574   1.09219002  0.8787185 
  1.0234375    1.09138422   1.09113138  0.9770992 
  1.1640625    1.09033995   1.09006793  0.8590604 
  1.08072917   1.08929357   1.08899998  0.9253012 
  1.21614583   1.0882458    1.08792784  0.8222698 
  1.0234375    1.0871975    1.0868518   0.9770992 
  1.16927083   1.08614962   1.08577218  0.8552339 
  1.16927083   1.0851033    1.08468928  0.8552339 
  1.04427083   1.08405994   1.0836034   0.957606  
  1.13541667   1.08302123   1.08251486  0.8807339 
  1.0078125    1.08198935   1.08142395  0.9922481 
  1.12760417   1.08096708   1.08033099  0.886836  
  1.0625       1.07995817   1.07923628  0.9411765 
  1.02604167   1.07896773   1.07814013  0.9746193 
  1.05989583   1.07800308   1.07704282  0.9434889 
  1.14322917   1.07707538   1.07594468  0.8747153 
  1.09895833   1.07620586   1.07484599  0.9099526 
  1.1484375    1.07545486   1.07374705  0.8707483 
  1.10416667   1.07503876   1.07264817  0.9056604 
  0.98697917   1.0756524    1.07154962  1.0131926 
  1.1484375    1.07893515   1.0704517   0.8707483 
  1.0390625    1.08731369   1.0693547   0.962406  
  1            1.10204566   1.06825889  1         
  1.046875     1.12003004   1.06716457  0.9552239 
  1.09375      1.13264671   1.066072    0.9142857 
  1.05989583   1.13221599   1.06498146  0.9434889 
  1.07291667   1.12028352   1.06389322  0.9320388 
  1.15104167   1.10301448   1.06280754  0.8687783 
  1.03645833   1.08814172   1.06172468  0.9648241 
  1.0234375    1.08172124   1.0606449   0.9770992 
  1.05208333   1.0873818    1.05956844  0.950495  
  1.12239583   1.10616996   1.05849557  0.8909513 
  1.03385417   1.133477     1.0574265   0.9672544 
  1.1171875    1.1565188    1.05636149  0.8951049 
  1.02604167   1.16089743   1.05530076  0.9746193 
  1.06770833   1.14568738   1.05424454  0.9365854 
  1.09895833   1.11918792   1.05319305  0.9099526 
  1.15104167   1.09206326   1.0521465   0.8687783 
  0.89322917   1.07195274   1.0511051   1.1195335 
  1.04166667   1.06006261   1.05006906  0.96      
  1.125        1.05400676   1.04903856  0.8888889 
  1.09375      1.05094888   1.04801381  0.9142857 
  1.05208333   1.04908436   1.04699498  0.950495  
  1.05989583   1.04763226   1.04598226  0.9434889 
  0.9921875    1.04633694   1.04497581  1.007874  
  1.01041667   1.04512341   1.04397581  0.9896907 
  1.10416667   1.04396485   1.04298241  0.9056604 
  1.09635417   1.04284736   1.04199577  0.912114  
  1.0703125    1.0417621    1.04101603  0.9343066 
  1.05208333   1.04070303   1.04004333  0.950495  
  1.14322917   1.03966585   1.0390778   0.8747153 
  1.09114583   1.03864752   1.03811958  0.9164678 
  1.109375     1.03764578   1.03716879  0.9014085 
  1.07291667   1.03665895   1.03622553  0.9320388 
  1.078125     1.03568577   1.03528992  0.9275362 
  1.10677083   1.03472529   1.03436205  0.9035294 
  0.98958333   1.03377675   1.03344202  1.0105263 
  1.05729167   1.03283959   1.03252992  0.9458128 
  0.97395833   1.03191334   1.03162583  1.026738  
  1.08333333   1.03099765   1.03072981  0.9230769 
  1.10416667   1.03009223   1.02984195  0.9056604 
  1.03125      1.02919685   1.0289623   0.969697  
  1.04947917   1.02831131   1.02809091  0.9528536 
  1.02864583   1.02743547   1.02722783  0.9721519 
  0.98697917   1.02656918   1.02637311  1.0131926 
  0.96875      1.02571235   1.02552678  1.0322581 
  0.9765625    1.02486488   1.02468887  1.024     
  1.109375     1.02402667   1.02385939  0.9014085 
  1.07291667   1.02319766   1.02303838  0.9320388 
  1.14322917   1.02237779   1.02222583  0.8747153 
  1.03125      1.02156697   1.02142175  0.969697  
  0.91666667   1.02076516   1.02062614  1.0909091 
  1            1.01997229   1.019839    1         
  1.0390625    1.0191883    1.0190603   0.962406  
  1.03125      1.01841313   1.01829003  0.969697  
  1.0859375    1.01764672   1.01752816  0.9208633 
  1.07552083   1.01688902   1.01677467  0.9297821 
  0.99739583   1.01613995   1.01602951  1.002611  
  1.06510417   1.01539944   1.01529265  0.9388753 
  1.03125      1.01466744   1.01456403  0.969697  
  1.0625       1.01394386   1.01384361  0.9411765 
  1.0234375    1.01322863   1.01313133  0.9770992 
  1.04947917   1.01252167   1.01242712  0.9528536 
  1.04427083   1.01182291   1.01173093  0.957606  
  1.02083333   1.01113225   1.01104266  0.9795918 
  0.97916667   1.01044961   1.01036226  1.0212766 
  1.03645833   1.00977489   1.00968964  0.9648241 
  1.0546875    1.009108     1.00902471  0.9481481 
  1.015625     1.00844885   1.00836739  0.9846154 
  1.13802083   1.00779732   1.00771757  0.8787185 
  1.11197917   1.00715332   1.00707517  0.8992974 
  1.08333333   1.00651673   1.00644008  0.9230769 
  0.9921875    1.00588745   1.00581219  1.007874  
  1.0625       1.00526536   1.0051914   0.9411765 
  1.04947917   1.00465033   1.00457759  0.9528536 
  1.01822917   1.00404226   1.00397064  0.9820972 
  0.97135417   1.00344102   1.00337045  1.0294906 
  0.99739583   1.00284647   1.00277687  1.002611  
  0.99739583   1.0022585    1.0021898   1.002611  
  1.03645833   1.00167696   1.0016091   0.9648241 
  0.96875      1.00110173   1.00103464  1.0322581 
  0.9921875    1.00053267   1.00046628  1.007874  
  1.0078125    0.99996965   0.9999039   0.9922481 
  1.05729167   0.99941251   0.99934734  0.9458128 
  0.953125     0.99886112   0.99879648  1.0491803 
  0.9296875    0.99831533   0.99825117  1.0756303 
  1.01822917   0.99777501   0.99771127  0.9820972 
  1.0546875    0.99723999   0.99717662  0.9481481 
  1.04166667   0.99671013   0.99664709  0.96      
  1.01302083   0.99618529   0.99612252  0.9871465 
  1.02604167   0.9956653    0.99560276  0.9746193 
  1.0078125    0.99515003   0.99508766  0.9922481 
  1.046875     0.9946393    0.99457707  0.9552239 
  0.90104167   0.99413298   0.99407084  1.1098266 
  0.9921875    0.99363091   0.99356881  1.007874  
  1.03385417   0.99325991   0.99307083  0.9672544 
  0.97395833   0.99276686   0.99257674  1.026738  
  0.98958333   0.9922776    0.99208639  1.0105263 
  1.015625     0.99193358   0.99159961  0.9846154 
  0.984375     0.99145256   0.99111626  1.015873  
  1.10677083   0.99097488   0.99063618  0.9035294 
  1.03385417   0.99053943   0.99015922  0.9672544 
  1.0859375    0.99006826   0.98968521  0.9208633 
  0.9765625    0.98959997   0.989214    1.024     
  0.9921875    0.9891344    0.98874544  1.007874  
  1.046875     0.98867141   0.98827938  0.9552239 
  0.93489583   0.98821083   0.98781566  1.0696379 
  1.11458333   0.98775252   0.98735413  0.8971963 
  0.97916667   0.98729632   0.98689463  1.0212766 
  0.89583333   0.9868421    0.98643703  1.1162791 
  0.96614583   0.98638969   0.98598116  1.0350404 
  1.04427083   0.98593897   0.98552689  0.957606  
  0.94270833   0.98548977   0.98507406  1.0607735 
  0.921875     0.98504196   0.98462253  1.0847458 
  1.00520833   0.98459541   0.98417216  0.9948187 
  0.92708333   0.98414996   0.98372281  1.0786517 
  1.0234375    0.98370549   0.98327434  0.9770992 
  1.02864583   0.98326185   0.98282661  0.9721519 
  0.99739583   0.98281892   0.98237949  1.002611  
  0.9921875    0.98237657   0.98193284  1.007874  
  1.02083333   0.98193466   0.98148654  0.9795918 
  1.03125      0.98149308   0.98104044  0.969697  
  1.12760417   0.9810517    0.98059444  0.886836  
  0.89322917   0.9806104    0.9801484   1.1195335 
  0.91666667   0.98016907   0.9797022   1.0909091 
  1.01822917   0.97972758   0.97925573  0.9820972 
  1.11979167   0.97928583   0.97880887  0.8930233 
  0.9140625    0.97884372   0.9783615   1.0940171 
  1.0078125    0.97840113   0.97791352  0.9922481 
  0.8984375    0.97795797   0.97746482  1.1130435 
  0.92708333   0.97751413   0.97701529  1.0786517 
  0.8671875    0.97706953   0.97656484  1.1531532 
  0.90364583   0.97662406   0.97611336  1.1066282 
  0.9921875    0.97617765   0.97566077  1.007874  
  0.98697917   0.97573021   0.97520696  1.0131926 
  0.94010417   0.97528167   0.97475186  1.0637119 
  0.9453125    0.97483193   0.97429537  1.0578512 
  0.95572917   0.97438094   0.97383741  1.0463215 
  0.95052083   0.97392863   0.97337791  1.0520548 
  1.08333333   0.97347492   0.97291679  0.9230769 
  0.9921875    0.97301978   0.97245398  1.007874  
  0.90625      0.97256313   0.97198941  1.1034483 
  0.9375       0.97210493   0.97152301  1.0666667 
  0.92708333   0.97164513   0.97105473  1.0786517 
  0.984375     0.97118371   0.97058451  1.015873  
  1.01822917   0.97072061   0.97011229  0.9820972 
  0.95572917   0.97025582   0.96963803  1.0463215 
  0.96614583   0.9697893    0.96916167  1.0350404 
  0.96875      0.96932105   0.96868318  1.0322581 
  0.9453125    0.96885106   0.96820251  1.0578512 
  0.90104167   0.9683793    0.96771963  1.1098266 
  0.87760417   0.9679058    0.96723451  1.1394659 
  0.94791667   0.96743056   0.96674712  1.0549451 
  0.9609375    0.96695359   0.96625743  1.0406504 
  0.90885417   0.96647493   0.96576543  1.1002865 
  0.97916667   0.96599461   0.96527109  1.0212766 
  0.95052083   0.96551267   0.9647744   1.0520548 
  0.86197917   0.96502917   0.96427536  1.1601208 
  1.0546875    0.96454418   0.96377395  0.9481481 
  0.890625     0.96405779   0.96327017  1.122807  
  0.88541667   0.96357007   0.96276403  1.1294118 
  0.99479167   0.96308116   0.96225552  1.0052356 
  0.97395833   0.96259118   0.96174467  1.026738  
  0.9453125    0.96210028   0.96123146  1.0578512 
  0.94270833   0.96160864   0.96071593  1.0607735 
  0.91927083   0.96111648   0.9601981   1.0878187 
  0.99739583   0.96062402   0.95967797  1.002611  
  0.95833333   0.96013157   0.95915558  1.0434783 
  0.90104167   0.95963943   0.95863096  1.1098266 
  0.89583333   0.959148     0.95810414  1.1162791 
  0.93489583   0.95865775   0.95757514  1.0696379 
  0.9375       0.9581692    0.95704403  1.0666667 
  0.9453125    0.95768302   0.95651082  1.0578512 
  0.88802083   0.95719998   0.95597557  1.1260997 
  0.98958333   0.95672106   0.95543833  1.0105263 
  0.94270833   0.95624741   0.95489915  1.0607735 
  0.85677083   0.95578051   0.95435808  1.1671733 
  0.96614583   0.9553222    0.95381518  1.0350404 
  0.98958333   0.95487485   0.9532705   1.0105263 
  0.88020833   0.95444155   0.95272412  1.1360947 
  0.98177083   0.95402638   0.95217609  1.0185676 
  0.88541667   0.95363502   0.95162649  1.1294118 
  0.9609375    0.95327597   0.95107539  1.0406504 
  0.97135417   0.95296589   0.95052285  1.0294906 
  1.0625       0.95275072   0.94996896  0.9411765 
  0.90364583   0.95276938   0.94941379  1.1066282 
  1.05989583   0.95336264   0.94885743  0.9434889 
  0.99479167   0.95508695   0.94829995  1.0052356 
  1.05729167   0.95835144   0.94774145  0.9458128 
  0.91666667   0.96271334   0.94718202  1.0909091 
  1.09114583   0.96651147   0.94662173  0.9164678 
  1.13541667   0.96816924   0.94606069  0.8807339 
  0.92708333   0.96909238   0.94549898  1.0786517 
  1.02604167   0.97387755   0.94493671  0.9746193 
  1.10416667   0.99092988   0.94437396  0.9056604 
  1.06770833   1.03065808   0.94381085  0.9365854 
  1.0625       1.09507776   0.94324747  0.9411765 
  1.11458333   1.16591774   0.94268392  0.8971963 
  1.20052083   1.20616775   0.94212031  0.8329718 
  1.20833333   1.19644121   0.94155675  0.8275862 
  1.1953125    1.15340717   0.94099334  0.8366013 
  1.08854167   1.09369374   0.94043018  0.9186603 
  1.00260417   1.03456744   0.9398674   0.9974026 
  1.01041667   0.99044941   0.93930509  0.9896907 
  0.95833333   0.96426466   0.93874338  1.0434783 
  0.93229167   0.95146095   0.93818236  1.0726257 
  0.94010417   0.94583356   0.93762217  1.0637119 
  0.89322917   0.94314029   0.93706291  1.1195335 
  0.921875     0.94147291   0.93650469  1.0847458 
  0.9453125    0.94019329   0.93594764  1.0578512 
  0.984375     0.93911039   0.93539186  1.015873  
  0.984375     0.93815456   0.93483748  1.015873  
  0.95572917   0.93728912   0.93428461  1.0463215 
  0.90104167   0.93649068   0.93373337  1.1098266 
  0.96354167   0.93574319   0.93318388  1.0378378 
  0.9375       0.93503533   0.93263625  1.0666667 
  0.83854167   0.93435895   0.93209061  1.1925466 
  0.9765625    0.93370806   0.93154706  1.024     
  0.91666667   0.93307821   0.93100573  1.0909091 
  0.90885417   0.93246601   0.93046674  1.1002865 
  0.98958333   0.93186889   0.92993019  1.0105263 
  0.92708333   0.93128485   0.92939622  1.0786517 
  0.89583333   0.93071234   0.92886492  1.1162791 
  0.91666667   0.93015014   0.92833643  1.0909091 
  0.94010417   0.9295973    0.92781085  1.0637119 
  0.95833333   0.92905306   0.92728831  1.0434783 
  1.00260417   0.92851682   0.9267689   0.9974026 
  0.890625     0.92798809   0.92625275  1.122807  
  0.9375       0.92746651   0.92573997  1.0666667 
  0.93489583   0.92695179   0.92523066  1.0696379 
  0.97916667   0.92644368   0.92472495  1.0212766 
  0.8828125    0.9260377    0.92422293  1.1327434 
  0.80208333   0.9255431    0.92372471  1.2467532 
  0.93229167   0.92505473   0.92323041  1.0726257 
  0.93489583   0.92462026   0.92274012  1.0696379 
  0.91666667   0.92414453   0.92225394  1.0909091 
  0.9765625    0.92367491   0.92177199  1.024     
  0.96354167   0.9232114    0.92129435  1.0378378 
  0.95833333   0.922754     0.92082114  1.0434783 
  0.98697917   0.92230273   0.92035244  1.0131926 
  0.88541667   0.92185765   0.91988835  1.1294118 
  0.92447917   0.9214188    0.91942896  1.0816901 
  0.9296875    0.92098622   0.91897437  1.0756303 
  0.953125     0.92055997   0.91852466  1.0491803 
  0.8203125    0.92014013   0.91807993  1.2190476 
  0.9296875    0.91972677   0.91764025  1.0756303 
  0.96354167   0.91931996   0.91720571  1.0378378 
  0.97916667   0.91891978   0.91677639  1.0212766 
  0.94010417   0.9185263    0.91635237  1.0637119 
  0.83333333   0.91813963   0.91593373  1.2       
  0.8671875    0.91775984   0.91552053  1.1531532 
  0.86458333   0.91738702   0.91511286  1.1566265 
  0.87239583   0.91702127   0.91471077  1.1462687 
  0.89583333   0.91666268   0.91431434  1.1162791 
  0.91145833   0.91631135   0.91392363  1.0971429 
  0.921875     0.91596737   0.91353871  1.0847458 
  0.95833333   0.91563085   0.91315962  1.0434783 
  0.95833333   0.91530187   0.91278643  1.0434783 
  0.94270833   0.91498056   0.91241919  1.0607735 
  0.94270833   0.91466699   0.91205795  1.0607735 
  0.8984375    0.9143613    0.91170275  1.1130435 
  0.89583333   0.91406358   0.91135365  1.1162791 
  0.77864583   0.91377394   0.91101069  1.2842809 
  0.97395833   0.91349249   0.91067389  1.026738  
  0.7890625    0.91321936   0.91034331  1.2673267 
  0.875        0.91295464   0.91001896  1.1428571 
  0.93489583   0.91269847   0.90970089  1.0696379 
  0.875        0.91245097   0.90938912  1.1428571 
  0.88802083   0.91221226   0.90908367  1.1260997 
  0.8828125    0.91198248   0.90878456  1.1327434 
  0.93229167   0.91176175   0.90849182  1.0726257 
  0.85677083   0.91155022   0.90820545  1.1671733 
  0.9296875    0.91134804   0.90792547  1.0756303 
  0.94791667   0.91115535   0.90765188  1.0549451 
  0.87760417   0.91097231   0.9073847   1.1394659 
  0.921875     0.91079909   0.90712391  1.0847458 
  0.84895833   0.91063586   0.90686953  1.1779141 
  0.90364583   0.9104828    0.90662155  1.1066282 
  0.90885417   0.9103401    0.90637995  1.1002865 
  0.86458333   0.91020798   0.90614473  1.1566265 
  0.83333333   0.91008663   0.90591588  1.2       
  0.90104167   0.9099763    0.90569337  1.1098266 
  0.99739583   0.90987723   0.90547719  1.002611  
  0.90364583   0.90978967   0.90526731  1.1066282 
  0.8828125    0.9097139    0.9050637   1.1327434 
  0.91145833   0.90965023   0.90486634  1.0971429 
  0.85677083   0.90959898   0.90467519  1.1671733 
  0.921875     0.90956049   0.90449021  1.0847458 
  0.953125     0.90953513   0.90431137  1.0491803 
  0.921875     0.90952332   0.90413861  1.0847458 
  0.84635417   0.90952549   0.9039719   1.1815385 
  0.9296875    0.9095421    0.90381119  1.0756303 
  0.90625      0.9095737    0.90365641  1.1034483 
  0.8828125    0.90962082   0.90350752  1.1327434 
  0.95572917   0.9096841    0.90336446  1.0463215 
  0.96614583   0.90976419   0.90322716  1.0350404 
  0.9765625    0.90986185   0.90309556  1.024     
  1            0.90997788   0.90296959  1         
  1.03385417   0.91011316   0.90284918  0.9672544 
  0.99739583   0.91026869   0.90273426  1.002611  
  1.06770833   0.91044551   0.90262474  0.9365854 
  1.03385417   0.91064486   0.90252055  0.9672544 
  1.0390625    0.91086802   0.9024216   0.962406  
  1.08333333   0.91111646   0.90232781  0.9230769 
  0.94010417   0.91139184   0.90223909  1.0637119 
  0.93229167   0.91169594   0.90215535  1.0726257 
  1.046875     0.91203081   0.90207649  0.9552239 
  0.9375       0.91239867   0.90200241  1.0666667 
  0.92708333   0.91280211   0.90193302  1.0786517 
  1.01302083   0.91324392   0.9018682   0.9871465 
  0.97916667   0.91372735   0.90180787  1.0212766 
  0.9921875    0.91425599   0.9017519   1.007874  
  0.953125     0.91483399   0.90170019  1.0491803 
  0.89322917   0.91546595   0.90165263  1.1195335 
  0.91666667   0.91615719   0.90160909  1.0909091 
  0.9375       0.91691385   0.90156946  1.0666667 
  0.92447917   0.91774279   0.90153363  1.0816901 
  0.84895833   0.91865209   0.90150146  1.1779141 
  0.88802083   0.91965091   0.90147283  1.1260997 
  0.95833333   0.9207501    0.90144762  1.0434783 
  0.90885417   0.921962     0.90142569  1.1002865 
  0.96875      0.92330138   0.90140692  1.0322581 
  0.90885417   0.92478534   0.90139117  1.1002865 
  0.97135417   0.92643421   0.90137831  1.0294906 
  0.8671875    0.92827236   0.90136819  1.1531532 
  0.99479167   0.93032854   0.90136068  1.0052356 
  0.88541667   0.93263779   0.90135564  1.1294118 
  0.97395833   0.93524222   0.90135292  1.026738  
  0.91927083   0.93819376   0.90135238  1.0878187 
  0.91666667   0.94155594   0.90135387  1.0909091 
  0.94270833   0.94540842   0.90135725  1.0607735 
  0.92447917   0.94985052   0.90136237  1.0816901 
  0.97135417   0.95500903   0.90136907  1.0294906 
  0.95572917   0.96104752   0.9013772   1.0463215 
  0.953125     0.96817782   0.9013866   1.0491803 
  0.89583333   0.976682     0.90139713  1.1162791 
  0.95833333   0.98693785   0.90140863  1.0434783 
  1.05729167   0.99946596   0.90142094  0.9458128 
  1.02083333   1.01499287   0.9014339   0.9795918 
  1.05208333   1.03456884   0.90144735  0.950495  
  1.0859375    1.05977155   0.90146113  0.9208633 
  1.11979167   1.09332606   0.90147508  0.8930233 
  1.38802083   1.14172293   0.90148904  0.7204503 
  1.53125      1.22611375   0.90150284  0.6530612 
  2.08072917   1.41551632   0.90151633  0.4806008 
  2.625        1.8847536    0.90152933  0.3809524 
  3.5078125    2.92683096   0.90154168  0.285078  
  5.2109375    4.7733731    0.90155322  0.191904  
  7.81770833   7.2426279    0.90156379  0.1279147 
  11.16145833  9.54356722   0.9015732   0.089594  
  12.76302083  10.82745097  0.90158131  0.0783514 
  10.85677083  11.31003473  0.90158794  0.0921084 
  10.90364583  11.30898602  0.90159293  0.0917124 
  10.72135417  10.33919847  0.90159611  0.0932718 
  8.32291667   8.46592538   0.90159731  0.1201502 
  5.9609375    6.50381187   0.90159637  0.1677588 
  4.4921875    4.81089545   0.90159312  0.2226087 
  3.33072917   3.40107682   0.9015874   0.3002346 
  1.9453125    2.3566937    0.90157903  0.5140562 
  1.48958333   1.69746867   0.90156787  0.6713287 
  1.16927083   1.34715451   0.90155373  0.8552339 
  1.1328125    1.18438824   0.90153645  0.8827586 
  1.078125     1.10879583   0.90151588  0.9275362 
  1.109375     1.06722502   0.90149184  0.9014085 
  0.98697917   1.03931823   0.90146419  1.0131926 
  0.8984375    1.01842377   0.90143274  1.1130435 
  1.03645833   1.00206432   0.90139736  0.9648241 
  1.046875     0.98895905   0.90135786  0.9552239 
  0.9375       0.97828406   0.9013141   1.0666667 
  0.94791667   0.9694639    0.90126592  1.0549451 
  0.8515625    0.96208644   0.90121316  1.1743119 
  0.9453125    0.95584752   0.90115567  1.0578512 
  0.91666667   0.95051992   0.90109329  1.0909091 
  0.94010417   0.94592996   0.90102587  1.0637119 
  0.83854167   0.94194393   0.90095326  1.1925466 
  0.921875     0.93845616   0.9008753   1.0847458 
  0.97135417   0.93538429   0.90079186  1.0294906 
  0.921875     0.93266116   0.90070278  1.0847458 
  0.93229167   0.93023289   0.90060792  1.0726257 
  0.87760417   0.92805544   0.90050713  1.1394659 
  0.92708333   0.92609241   0.90040028  1.0786517 
  0.91927083   0.92431381   0.90028722  1.0878187 
  0.94010417   0.92269439   0.90016782  1.0637119 
  0.88541667   0.9212131    0.90004194  1.1294118 
  0.9609375    0.91985137   0.89990945  1.0406504 
  0.80208333   0.91859519   0.89977021  1.2467532 
  0.87239583   0.9174307    0.8996241   1.1462687 
  0.75         0.91634719   0.89947099  1.3333333 
  0.8515625    0.91533478   0.89931075  1.1743119 
  0.8203125    0.91438504   0.89914326  1.2190476 
  0.88541667   0.91349071   0.8989684   1.1294118 
  0.81510417   0.91264535   0.89878606  1.2268371 
  0.82552083   0.91184341   0.89859611  1.2113565 
  0.87760417   0.9110799    0.89839845  1.1394659 
  0.86458333   0.9103505    0.89819296  1.1566265 
  0.95052083   0.90965133   0.89797954  1.0520548 
  0.82291667   0.90897892   0.89775809  1.2151899 
  0.88020833   0.90833025   0.89752849  1.1360947 
  0.85677083   0.90770255   0.89729065  1.1671733 
  0.85677083   0.90709339   0.89704447  1.1671733 
  0.90625      0.90650056   0.89678987  1.1034483 
  0.78125      0.90592209   0.89652674  1.28      
  0.89322917   0.90535618   0.896255    1.1195335 
  0.8359375    0.90480123   0.89597457  1.1962617 
  0.9609375    0.90425579   0.89568537  1.0406504 
  0.81510417   0.90371852   0.89538731  1.2268371 
  0.8984375    0.90318825   0.89508031  1.1130435 
  0.8359375    0.90266389   0.89476432  1.1962617 
  0.92447917   0.90214445   0.89443925  1.0816901 
  0.93489583   0.90162905   0.89410505  1.0696379 
  0.76822917   0.90111689   0.89376164  1.3016949 
  0.84635417   0.90060722   0.89340897  1.1815385 
  0.875        0.90009939   0.89304699  1.1428571 
  0.85416667   0.89959279   0.89267563  1.1707317 
  0.80208333   0.89908688   0.89229485  1.2467532 
  0.90364583   0.89858118   0.89190461  1.1066282 
  0.90104167   0.89807524   0.89150486  1.1098266 
  0.8515625    0.89756869   0.89109556  1.1743119 
  0.875        0.89706117   0.89067668  1.1428571 
  0.84895833   0.89655239   0.89024818  1.1779141 
  0.83072917   0.89604208   0.88981004  1.2037618 
  0.81510417   0.89553001   0.88936222  1.2268371 
  0.7578125    0.89501602   0.88890472  1.3195876 
  0.91927083   0.89449992   0.8884375   1.0878187 
  0.9296875    0.89398163   0.88796056  1.0756303 
  0.98697917   0.89346106   0.88747389  1.0131926 
  0.83333333   0.89293816   0.88697747  1.2       
  0.8671875    0.89241292   0.88647131  1.1531532 
  0.78125      0.89188538   0.8859554   1.28      
  0.86979167   0.89135558   0.88542975  1.1497006 
  0.87239583   0.89082364   0.88489436  1.1462687 
  0.8359375    0.89028968   0.88434925  1.1962617 
  0.8984375    0.88975388   0.88379443  1.1130435 
  0.89583333   0.88921646   0.88322993  1.1162791 
  1.05208333   0.88867767   0.88265575  0.950495  
  0.8984375    0.88813784   0.88207193  1.1130435 
  0.9453125    0.88759731   0.8814785   1.0578512 
  0.82552083   0.8870565    0.88087549  1.2113565 
  0.90364583   0.88651589   0.88026293  1.1066282 
  0.84114583   0.885976     0.87964088  1.1888545 
  0.92708333   0.88543745   0.87900936  1.0786517 
  0.79427083   0.88490092   0.87836844  1.2590164 
  0.85416667   0.88436717   0.87771816  1.1707317 
  0.79166667   0.88383707   0.87705857  1.2631579 
  0.97916667   0.88331162   0.87638974  1.0212766 
  0.8359375    0.88279187   0.87571173  1.1962617 
  0.890625     0.88227908   0.87502461  1.122807  
  0.75260417   0.88177462   0.87432844  1.3287197 
  0.87760417   0.88128006   0.8736233   1.1394659 
  0.94791667   0.88079714   0.87290926  1.0549451 
  0.79166667   0.88032786   0.87218642  1.2631579 
  0.84895833   0.87987445   0.87145484  1.1779141 
  0.77083333   0.87943948   0.87071462  1.2972973 
  0.83333333   0.87902589   0.86996585  1.2       
  0.86979167   0.87863697   0.86920862  1.1497006 
  0.83333333   0.87827655   0.86844304  1.2       
  0.86979167   0.87794902   0.8676692   1.1497006 
  0.765625     0.87765945   0.86688721  1.3061224 
  0.83072917   0.87741371   0.86609717  1.2037618 
  0.85416667   0.87721866   0.86529921  1.1707317 
  0.8203125    0.87708232   0.86449343  1.2190476 
  0.81770833   0.87701412   0.86367996  1.2229299 
  0.7578125    0.87702531   0.86285891  1.3195876 
  0.76041667   0.8771291    0.86203042  1.3150685 
  0.79427083   0.87734155   0.8611946   1.2590164 
  0.83072917   0.8776818    0.86035159  1.2037618 
  0.80208333   0.87817335   0.85950152  1.2467532 
  0.8671875    0.87884482   0.85864454  1.1531532 
  0.81770833   0.87973174   0.85778079  1.2229299 
  0.8203125    0.88087825   0.85691039  1.2190476 
  0.8984375    0.88234032   0.85603352  1.1130435 
  0.84635417   0.8841893    0.85515031  1.1815385 
  0.90625      0.88651693   0.85426091  1.1034483 
  0.81770833   0.88944406   0.85336549  1.2229299 
  0.82291667   0.89313057   0.85246419  1.2151899 
  0.8671875    0.89779358   0.85155719  1.1531532 
  0.8984375    0.90373176   0.85064465  1.1130435 
  0.90104167   0.91136639   0.84972673  1.1098266 
  0.98697917   0.92130613   0.8488036   1.0131926 
  1.04166667   0.93446879   0.84787543  0.96      
  0.95572917   0.95241249   0.8469424   1.0463215 
  1.09114583   0.97868365   0.84600468  0.9164678 
  1.26822917   1.02463512   0.84506246  0.788501  
  1.3125       1.12829559   0.84411592  0.7619048 
  1.70833333   1.39175667   0.84316524  0.5853659 
  2.24739583   2.00097006   0.8422106   0.4449594 
  3.1640625    3.12787258   0.8412522   0.3160494 
  4.70833333   4.6798133    0.84029022  0.2123894 
  6.44010417   6.09269505   0.83932487  0.155277  
  6.7734375    6.57503502   0.83835633  0.1476355 
  5.515625     6.10744257   0.8373848   0.1813031 
  4.52083333   5.32005905   0.83641048  0.2211982 
  4.10416667   4.41146239   0.83543357  0.2436548 
  3.12239583   3.35019694   0.83445428  0.3202669 
  2.04947917   2.36107309   0.8334728   0.4879288 
  1.40364583   1.65036965   0.83248935  0.7124304 
  1.125        1.24736651   0.83150414  0.8888889 
  1.01822917   1.05984048   0.83051737  0.9820972 
  0.86197917   0.97972609   0.82952925  1.1601208 
  0.9921875    0.94151933   0.82854     1.007874  
  0.8515625    0.91846074   0.82754983  1.1743119 
  0.8984375    0.90196342   0.82655896  1.1130435 
  0.875        0.88924952   0.8255676   1.1428571 
  0.93229167   0.87911042   0.82457597  1.0726257 
  0.82291667   0.8708347    0.8235843   1.2151899 
  0.86458333   0.86394707   0.82259279  1.1566265 
  0.78125      0.85811546   0.82160168  1.28      
  0.8203125    0.8531015    0.82061118  1.2190476 
  0.81770833   0.84873095   0.81962152  1.2229299 
  0.91927083   0.84487341   0.81863293  1.0878187 
  0.89583333   0.84143068   0.81764562  1.1162791 
  0.85677083   0.83832665   0.81665982  1.1671733 
  0.83333333   0.83550232   0.81567577  1.2       
  0.7578125    0.83291112   0.81469368  1.3195876 
  0.76302083   0.83051594   0.81371378  1.3105802 
  0.8515625    0.82828695   0.81273631  1.1743119 
  0.78125      0.82619987   0.81176149  1.28      
  0.8125       0.82423495   0.81078954  1.2307692 
  0.73958333   0.82237575   0.80982071  1.3521127 
  0.734375     0.82060884   0.80885521  1.3617021 
  0.90885417   0.81892285   0.80789328  1.1002865 
  0.81770833   0.81730831   0.80693515  1.2229299 
  0.8515625    0.81575719   0.80598104  1.1743119 
  0.859375     0.81426273   0.80503118  1.1636364 
  0.86458333   0.81281914   0.80408581  1.1566265 
  0.8984375    0.81142148   0.80314515  1.1130435 
  0.80208333   0.81006551   0.80220944  1.2467532 
  0.92708333   0.80874756   0.80127889  1.0786517 
  0.80208333   0.80746452   0.80035374  1.2467532 
  0.84114583   0.80621363   0.79943422  1.1888545 
  0.875        0.80499254   0.79852054  1.1428571 
  0.7421875    0.8037992    0.79761295  1.3473684 
  0.76041667   0.80263182   0.79671166  1.3150685 
  0.84375      0.80148884   0.7958169   1.1851852 
  0.79427083   0.80036889   0.79492889  1.2590164 
  0.828125     0.79927079   0.79404786  1.2075472 
  0.78125      0.79819348   0.79317403  1.28      
  0.82291667   0.79713608   0.79230762  1.2151899 
  0.82552083   0.79609777   0.79144885  1.2113565 
  0.74739583   0.79507787   0.79059794  1.3379791 
  0.83072917   0.79407578   0.78975511  1.2037618 
  0.8515625    0.79309095   0.78892057  1.1743119 
  0.8046875    0.79212295   0.78809454  1.2427184 
  0.74739583   0.79117137   0.78727724  1.3379791 
  0.875        0.79023586   0.78646887  1.1428571 
  0.77083333   0.78931613   0.78566965  1.2972973 
  0.85677083   0.78841193   0.78487979  1.1671733 
  0.796875     0.78752305   0.78409949  1.254902  
  0.6953125    0.7866493    0.78332897  1.4382022 
  0.8125       0.78579055   0.78256842  1.2307692 
  0.76041667   0.78494666   0.78181805  1.3150685 
  0.7421875    0.78411754   0.78107806  1.3473684 
  0.80989583   0.78330311   0.78034865  1.2347267 
  0.78125      0.78250333   0.77963001  1.28      
  0.703125     0.78171814   0.77892235  1.4222222 
  0.84895833   0.78094753   0.77822584  1.1779141 
  0.76822917   0.78019149   0.7775407   1.3016949 
  0.7890625    0.77945002   0.77686709  1.2673267 
  0.77864583   0.77872314   0.77620522  1.2842809 
  0.79166667   0.77828858   0.77555526  1.2631579 
  0.82291667   0.77759303   0.77491739  1.2151899 
  0.8046875    0.77691219   0.7742918   1.2427184 
  0.77604167   0.77624611   0.77367866  1.2885906 
  0.80208333   0.77573343   0.77307814  1.2467532 
  0.859375     0.77509809   0.77249042  1.1636364 
  0.80989583   0.77447765   0.77191567  1.2347267 
  0.84635417   0.7738723    0.77135405  1.1815385 
  0.86458333   0.77328205   0.77080572  1.1566265 
  0.7265625    0.77270698   0.77027085  1.3763441 
  0.796875     0.77214718   0.7697496   1.254902  
  0.734375     0.77160106   0.76924211  1.3617021 
  0.75         0.77231701   0.76874855  1.3333333 
  0.84114583   0.77181278   0.76826905  1.1888545 
  0.73958333   0.77132344   0.76780378  1.3521127 
  0.76041667   0.77085074   0.76735287  1.3150685 
  0.796875     0.77101548   0.76691646  1.254902  
  0.82552083   0.7705793    0.76649469  1.2113565 
  0.84114583   0.77046089   0.76608769  1.1888545 
  0.76822917   0.77005932   0.76569559  1.3016949 
  0.77864583   0.7696741    0.76531853  1.2842809 
  0.83333333   0.76930534   0.76495662  1.2       
  0.83854167   0.7691037    0.76460999  1.1925466 
  0.77864583   0.76876926   0.76427875  1.2842809 
  0.79166667   0.76845159   0.76396302  1.2631579 
  0.89322917   0.76815078   0.76366291  1.1195335 
  0.82552083   0.76786694   0.76337853  1.2113565 
  0.86979167   0.76760017   0.76310998  1.1497006 
  0.84375      0.76735058   0.76285736  1.1851852 
  0.8828125    0.76711829   0.76262076  1.1327434 
  0.796875     0.7669034    0.7624003   1.254902  
  0.79427083   0.76670604   0.76219604  1.2590164 
  0.76302083   0.76652634   0.76200808  1.3105802 
  0.78125      0.76636443   0.7618365   1.28      
  0.90625      0.76622047   0.76168138  1.1034483 
  0.72916667   0.76609462   0.76154279  1.3714286 
  0.7734375    0.76598709   0.76142082  1.2929293 
  0.80208333   0.76589808   0.76131551  1.2467532 
  0.84635417   0.76582787   0.76122694  1.1815385 
  0.80989583   0.76577677   0.76115517  1.2347267 
  0.84635417   0.76574518   0.76110026  1.1815385 
  0.83072917   0.76573359   0.76106225  1.2037618 
  0.87239583   0.76574265   0.7610412   1.1462687 
  0.8828125    0.76577322   0.76103715  1.1327434 
  0.86197917   0.76582649   0.76105014  1.1601208 
  0.88541667   0.76590414   0.76108021  1.1294118 
  0.8984375    0.76600877   0.7611274   1.1130435 
  1.01822917   0.76614549   0.76119172  0.9820972 
  1.07552083   0.76632837   0.76127322  0.9297821 
  1.046875     0.76660184   0.7613719   0.9552239 
  1.07291667   0.76708549   0.76148779  0.9320388 
  1.02604167   0.76800699   0.7616209   0.9746193 
  1.08854167   0.7696059    0.76177124  0.9186603 
  1.1875       0.77184623   0.76193882  0.8421053 
  1.04166667   0.77415844   0.76212364  0.96      
  1.02864583   0.77569611   0.76232569  0.9721519 
  0.98958333   0.7767042    0.76254497  1.0105263 
  0.90885417   0.77874027   0.76278148  1.1002865 
  0.953125     0.78255232   0.76303519  1.0491803 
  0.95572917   0.78697493   0.76330609  1.0463215 
  0.91666667   0.78957732   0.76359415  1.0909091 
  0.828125     0.78871897   0.76389936  1.2075472 
  0.82552083   0.78607664   0.76422168  1.2113565 
  0.92447917   0.78369062   0.76456108  1.0816901 
  0.8046875    0.7813845    0.76491753  1.2427184 
  0.89583333   0.77855493   0.76529097  1.1162791 
  0.78645833   0.77584983   0.76568136  1.2715232 
  0.81510417   0.77398615   0.76608866  1.2268371 
  0.83854167   0.77311136   0.76651281  1.1925466 
  0.796875     0.77295189   0.76695376  1.254902  
  0.80989583   0.7731645    0.76741144  1.2347267 
  0.75520833   0.77353609   0.76788579  1.3241379 
  0.79427083   0.77397789   0.76837674  1.2590164 
  0.77083333   0.77446062   0.76888422  1.2972973 
  0.76822917   0.77497449   0.76940815  1.3016949 
  0.6953125    0.77551511   0.76994845  1.4382022 
  0.76302083   0.77607982   0.77050504  1.3105802 
  0.69791667   0.77666682   0.77107784  1.4328358 
  0.73958333   0.77727479   0.77166674  1.3521127 
  0.78385417   0.77790277   0.77227165  1.2757475 
  0.7734375    0.77855001   0.77289249  1.2929293 
  0.8125       0.77921592   0.77352913  1.2307692 
  0.76822917   0.77990003   0.77418149  1.3016949 
  0.8046875    0.78060196   0.77484944  1.2427184 
  0.68229167   0.78132137   0.77553288  1.4656489 
  0.77604167   0.78205797   0.77623168  1.2885906 
  0.8359375    0.78281152   0.77694574  1.1962617 
  0.79166667   0.78358178   0.77767491  1.2631579 
  0.78125      0.78436853   0.77841909  1.28      
  0.7890625    0.7851716    0.77917813  1.2673267 
  0.71875      0.78599078   0.7799519   1.3913043 
  0.72395833   0.78682591   0.78074026  1.381295  
  0.765625     0.7876768    0.78154308  1.3061224 
  0.74739583   0.7885433    0.78236021  1.3379791 
  0.75         0.78942523   0.7831915   1.3333333 
  0.77083333   0.79032244   0.7840368   1.2972973 
  0.87239583   0.79123477   0.78489595  1.1462687 
  0.81510417   0.79216205   0.78576881  1.2268371 
  0.78125      0.79310413   0.7866552   1.28      
  0.79427083   0.79413535   0.78755497  1.2590164 
  0.76041667   0.79510709   0.78846795  1.3150685 
  0.73958333   0.79609315   0.78939397  1.3521127 
  0.78385417   0.79709338   0.79033285  1.2757475 
  0.7421875    0.79814473   0.79128443  1.3473684 
  0.84635417   0.79917306   0.79224852  1.1815385 
  0.81770833   0.80021507   0.79322494  1.2229299 
  0.72916667   0.80127058   0.79421351  1.3714286 
  0.78645833   0.80233945   0.79521404  1.2715232 
  0.7265625    0.80342148   0.79622634  1.3763441 
  0.7890625    0.80451652   0.79725022  1.2673267 
  0.828125     0.8056244    0.79828548  1.2075472 
  0.78385417   0.80674494   0.79933193  1.2757475 
  0.73958333   0.80787797   0.80038936  1.3521127 
  0.74739583   0.80902331   0.80145758  1.3379791 
  0.75260417   0.8101808    0.80253638  1.3287197 
  0.73958333   0.81135026   0.80362555  1.3521127 
  0.83072917   0.812532     0.80472488  1.2037618 
  0.7734375    0.81372485   0.80583416  1.2929293 
  0.79427083   0.81492914   0.80695317  1.2590164 
  0.8671875    0.81614467   0.8080817   1.1531532 
  0.80729167   0.81737152   0.80921954  1.2387097 
  0.86197917   0.81860902   0.81036644  1.1601208 
  0.8203125    0.81985722   0.81152221  1.2190476 
  0.8515625    0.82111595   0.81268661  1.1743119 
  0.87760417   0.82238501   0.81385941  1.1394659 
  0.73958333   0.82366423   0.81504038  1.3521127 
  0.75520833   0.82495342   0.8162293   1.3241379 
  0.79947917   0.82625241   0.81742593  1.2508143 
  0.76822917   0.827561     0.81863004  1.3016949 
  0.75         0.82887902   0.81984139  1.3333333 
  0.765625     0.83020627   0.82105975  1.3061224 
  0.81770833   0.83154258   0.82228487  1.2229299 
  0.828125     0.83288777   0.82351651  1.2075472 
  0.75         0.83424164   0.82475444  1.3333333 
  0.79947917   0.83560404   0.82599841  1.2508143 
  0.8359375    0.83697475   0.82724818  1.1962617 
  0.7109375    0.83835363   0.82850349  1.4065934 
  0.78385417   0.83974048   0.8297641   1.2757475 
  0.84375      0.84113513   0.83102977  1.1851852 
  0.82291667   0.8425374    0.83230024  1.2151899 
  0.828125     0.84394712   0.83357526  1.2075472 
  0.71614583   0.84536412   0.83485459  1.3963636 
  0.81770833   0.84678822   0.83613796  1.2229299 
  0.85416667   0.84821927   0.83742513  1.1707317 
  0.796875     0.84965709   0.83871584  1.254902  
  0.73958333   0.85110153   0.84000984  1.3521127 
  0.71875      0.85255241   0.84130686  1.3913043 
  0.81510417   0.8540096    0.84260666  1.2268371 
  0.77083333   0.85547293   0.84390898  1.2972973 
  0.75         0.85694225   0.84521355  1.3333333 
  0.82552083   0.85841743   0.84652013  1.2113565 
  0.81770833   0.85989829   0.84782845  1.2229299 
  0.86458333   0.86138474   0.84913825  1.1566265 
  0.72135417   0.86287661   0.85044928  1.3862816 
  0.82291667   0.86437379   0.85176127  1.2151899 
  0.79166667   0.86587614   0.85307397  1.2631579 
  0.81510417   0.86738355   0.85438711  1.2268371 
  0.73177083   0.86889592   0.85570044  1.366548  
  0.796875     0.87041312   0.85701369  1.254902  
  0.7421875    0.87193506   0.85832661  1.3473684 
  0.75         0.87346164   0.85963894  1.3333333 
  0.70572917   0.87499279   0.86095042  1.4169742 
  0.7734375    0.8765284    0.86226078  1.2929293 
  0.73697917   0.87806844   0.86356977  1.3568905 
  0.7265625    0.87961281   0.86487713  1.3763441 
  0.79947917   0.88116147   0.86618261  1.2508143 
  0.80989583   0.88265622   0.86748594  1.2347267 
  0.70833333   0.88421364   0.86878686  1.4117647 
  0.79166667   0.88577525   0.87008513  1.2631579 
  0.79947917   0.88731196   0.87138048  1.2508143 
  0.828125     0.88884629   0.87267265  1.2075472 
  0.85677083   0.89042074   0.87396141  1.1671733 
  0.79166667   0.89199941   0.87524648  1.2631579 
  0.703125     0.89356442   0.87652761  1.4222222 
  0.76302083   0.89515171   0.87780457  1.3105802 
  0.74739583   0.89674333   0.87907708  1.3379791 
  0.81510417   0.8983394    0.88034491  1.2268371 
  0.80989583   0.89994001   0.8816078   1.2347267 
  0.81770833   0.90154526   0.8828655   1.2229299 
  0.86979167   0.90315533   0.88411778  1.1497006 
  0.765625     0.90477032   0.88536438  1.3061224 
  0.7890625    0.90639048   0.88660505  1.2673267 
  0.74479167   0.90801594   0.88783956  1.3426573 
  0.77083333   0.90964699   0.88906767  1.2972973 
  0.84635417   0.91128384   0.89028913  1.1815385 
  0.77864583   0.91292679   0.8915037   1.2842809 
  0.88020833   0.91457615   0.89271114  1.1360947 
  0.80989583   0.91623222   0.89391123  1.2347267 
  0.875        0.91789546   0.89510373  1.1428571 
  0.80989583   0.91956619   0.8962884   1.2347267 
  0.83333333   0.92124492   0.89746502  1.2       
  0.859375     0.92293208   0.89863335  1.1636364 
  0.8515625    0.92462825   0.89979316  1.1743119 
  0.79427083   0.92633551   0.90094424  1.2590164 
  0.9453125    0.92805142   0.90208636  1.0578512 
  0.921875     0.92977815   0.9032193   1.0847458 
  0.84895833   0.93151646   0.90434283  1.1779141 
  0.95052083   0.93326718   0.90545675  1.0520548 
  1.05989583   0.93503182   0.90656083  0.9434889 
  1.13020833   0.93680989   0.90765486  0.8847926 
  1.21875      0.93860302   0.90873864  0.8205128 
  1.22916667   0.94041239   0.90981195  0.8135593 
  1.18489583   0.94223907   0.91087459  0.843956  
  1.02604167   0.94408435   0.91192634  0.9746193 
  1.15104167   0.94594958   0.91296702  0.8687783 
  1.02604167   0.94783686   0.91399642  0.9746193 
  1.09635417   0.94974645   0.91501435  0.912114  
  1.125        0.9516806    0.9160206   0.8888889 
  1.30729167   0.95364127   0.91701499  0.7649402 
  1.53385417   0.95563028   0.91799733  0.6519525 
  1.70833333   0.95765029   0.91896744  0.5853659 
  2.17708333   0.95970268   0.91992511  0.4593301 
  2.41145833   0.96179047   0.92087019  0.4146868 
  2.2734375    0.96391622   0.92180248  0.4398625 
  1.91145833   0.96608287   0.92272181  0.5231608 
  1.59895833   0.96829366   0.92362801  0.6254072 
  1.39322917   0.97055185   0.92452091  0.717757  
  1.33854167   0.97286137   0.92540033  0.7470817 
  1.39583333   0.97522599   0.92626612  0.7164179 
  1.20833333   0.97765033   0.92711811  0.8275862 
  1.37239583   0.98013901   0.92795614  0.7286528 
  1.20833333   0.98269732   0.92878005  0.8275862 
  1.18229167   0.98533094   0.9295897   0.845815  
  1.25         0.98804602   0.93038493  0.8       
  1.30729167   0.99084947   0.9311656   0.7649402 
  1.1640625    0.99374855   0.93193156  0.8590604 
  1.046875     0.99675175   0.93268266  0.9552239 
  1.14322917   0.99986773   0.93341878  0.8747153 
  1.05729167   1.00310669   0.93413977  0.9458128 
  1.06770833   1.00647938   0.93484551  0.9365854 
  0.98958333   1.00999807   0.93553586  1.0105263 
  1.09375      1.01367601   0.93621071  0.9142857 
  0.9765625    1.01752806   0.93686992  1.024     
  1.02083333   1.02157123   0.93751338  0.9795918 
  0.94010417   1.02582344   0.93814097  1.0637119 
  1.0234375    1.03030609   0.93875259  0.9770992 
  0.98177083   1.03504171   0.93934811  1.0185676 
  0.9765625    1.04005713   0.93992745  1.024     
  1.00260417   1.04538155   0.94049048  0.9974026 
  1.02604167   1.05104861   0.94103712  0.9746193 
  0.97916667   1.05709661   0.94156726  1.0212766 
  0.95052083   1.06356868   0.94208082  1.0520548 
  0.9765625    1.07051522   0.9425777   1.024     
  0.9296875    1.07799304   0.94305783  1.0756303 
  1.06770833   1.08606972   0.94352111  0.9365854 
  1.01822917   1.09482149   0.94396747  0.9820972 
  1.0703125    1.10434016   0.94439683  0.9343066 
  1.15104167   1.11473101   0.94480912  0.8687783 
  1.015625     1.12612163   0.94520427  0.9846154 
  1.10416667   1.13866246   0.94558222  0.9056604 
  1.10677083   1.15253505   0.9459429   0.9035294 
  1.11197917   1.16796087   0.94628625  0.8992974 
  1.2265625    1.18520924   0.94661223  0.8152866 
  1.1796875    1.20461862   0.94692077  0.8476821 
  1.09635417   1.226607     0.94721184  0.912114  
  1.04427083   1.25171498   0.94748538  0.957606  
  1.203125     1.28063188   0.94774135  0.8311688 
  1.22916667   1.3142729    0.94797973  0.8135593 
  1.23958333   1.35386219   0.94820046  0.8067227 
  1.3828125    1.40107722   0.94840353  0.7231638 
  1.43489583   1.45830272   0.9485889   0.6969147 
  1.515625     1.52912291   0.94875654  0.6597938 
  1.77864583   1.62001944   0.94890645  0.5622255 
  1.89322917   1.7471369    0.94903861  0.5281981 
  2.21354167   1.96083918   0.94915299  0.4517647 
  2.69010417   2.40743807   0.94924959  0.3717328 
  3.59114583   3.41214989   0.9493284   0.2784627 
  5.36979167   5.44286211   0.94938942  0.186227  
  8.2265625    8.74461246   0.94943265  0.1215575 
  11.9921875   12.73961167  0.9494581   0.0833876 
  16.53645833  15.72124697  0.94946576  0.0604724 
  17.69270833  15.97415638  0.94945566  0.0565205 
  14.890625    14.31525725  0.94942779  0.0671563 
  11.5234375   12.74918752  0.94938219  0.0867797 
  11.2265625   11.81900753  0.94931887  0.0890745 
  12.29427083  10.72521458  0.94923786  0.0813387 
  11.0078125   9.34863607   0.94913918  0.0908446 
  9.98958333   8.97366267   0.94902286  0.1001043 
  12.29947917  11.53211936  0.94888893  0.0813043 
  17.4296875   19.16084647  0.94873745  0.0573734 
  28.54427083  32.84503306  0.94856843  0.0350333 
  44.953125    50.0314598   0.94838193  0.0222454 
  63.80989583  63.28547161  0.948178    0.0156716 
  71.4375      64.69461038  0.94795668  0.0139983 
  60.015625    57.19349384  0.94771803  0.0166623 
  47.1640625   50.0508304   0.94746211  0.0212026 
  43.734375    46.64283225  0.94718897  0.0228653 
  45.2421875   43.6346522   0.94689867  0.0221033 
  39.71354167  38.48662121  0.94659129  0.0251803 
  29.50520833  32.18471709  0.94626689  0.0338923 
  22.26822917  25.35652957  0.94592554  0.044907  
  18.23958333  19.22377601  0.94556732  0.0548258 
  14.99479167  15.19251863  0.94519231  0.0666898 
  12.63802083  12.97177403  0.94480058  0.0791263 
  10.83072917  11.01949242  0.94439223  0.0923299 
  8.859375     8.50145992   0.94396733  0.1128748 
  6.953125     5.97279078   0.94352598  0.1438202 
  5.06770833   4.04941456   0.94306828  0.1973279 
  3.78385417   2.88190375   0.94259431  0.2642808 
  2.74739583   2.2760358    0.94210417  0.363981  
  2.3515625    1.97049935   0.94159798  0.4252492 
  1.765625     1.79528693   0.94107582  0.5663717 
  1.640625     1.67495063   0.94053781  0.6095238 
  1.59114583   1.58240431   0.93998406  0.6284779 
  1.45572917   1.507641     0.93941468  0.686941  
  1.3203125    1.4458414    0.93882978  0.7573964 
  1.21875      1.3939705    0.93822948  0.8205128 
  1.22395833   1.34989075   0.93761391  0.8170213 
  1.3203125    1.31203866   0.93698318  0.7573964 
  1.09895833   1.27922875   0.93633742  0.9099526 
  1.20572917   1.25051506   0.93567676  0.8293737 
  1.02864583   1.22527601   0.93500133  0.9721519 
  1.078125     1.20291378   0.93431125  0.9275362 
  1.12760417   1.18297072   0.93360667  0.886836  
  1.13020833   1.16509114   0.93288773  0.8847926 
  1.05989583   1.14899817   0.93215455  0.9434889 
  1.05729167   1.13443363   0.93140729  0.9458128 
  1.00520833   1.12119761   0.93064609  0.9948187 
  1.09635417   1.10911901   0.9298711   0.912114  
  0.984375     1.09805669   0.92908245  1.015873  
  1.0234375    1.08788815   0.92828031  0.9770992 
  1.07291667   1.07851169   0.92746483  0.9320388 
  0.98697917   1.06983776   0.92663616  1.0131926 
  0.98958333   1.06179078   0.92579446  1.0105263 
  1.0703125    1.05430488   0.92493988  0.9343066 
  1.05989583   1.04732206   0.92407259  0.9434889 
  0.8984375    1.04079355   0.92319275  1.1130435 
  1.05989583   1.03467483   0.92230053  0.9434889 
  0.9921875    1.02892846   0.92139609  1.007874  
  1.00260417   1.02352009   0.9204796   0.9974026 
  0.95833333   1.01842092   0.91955122  1.0434783 
  0.9296875    1.01360423   0.91861114  1.0756303 
  0.90104167   1.0090476    0.91765952  1.1098266 
  0.90625      1.00473041   0.91669654  1.1034483 
  0.98177083   1.00063463   0.91572238  1.0185676 
  0.92708333   0.99674493   0.91473721  1.0786517 
  0.95052083   0.99304701   0.91374121  1.0520548 
  0.97395833   0.98952928   0.91273456  1.026738  
  0.9609375    0.98618086   0.91171745  1.0406504 
  0.875        0.98299322   0.91069006  1.1428571 
  0.87760417   0.97995861   0.90965257  1.1394659 
  0.90104167   0.97707102   0.90860517  1.1098266 
  0.92447917   0.97432575   0.90754805  1.0816901 
  0.86979167   0.97171919   0.90648139  1.1497006 
  0.84114583   0.96924964   0.90540539  1.1888545 
  0.79166667   0.96691624   0.90432024  1.2631579 
  0.90625      0.96472043   0.90322613  1.1034483 
  0.85677083   0.96266462   0.90212324  1.1671733 
  0.921875     0.960754     0.90101178  1.0847458 
  0.93489583   0.95899547   0.89989194  1.0696379 
  0.78125      0.95739897   0.89876392  1.28      
  0.90364583   0.95597764   0.89762791  1.1066282 
  0.91927083   0.95474839   0.89648411  1.0878187 
  0.96614583   0.95373369   0.89533271  1.0350404 
  0.90364583   0.95296153   0.89417392  1.1066282 
  0.84635417   0.95246907   0.89300794  1.1815385 
  0.78645833   0.95230283   0.89183496  1.2715232 
  0.84635417   0.95252441   0.89065518  1.1815385 
  0.85416667   0.953214     0.88946882  1.1707317 
  0.96614583   0.95447723   0.88827606  1.0350404 
  0.92708333   0.95645679   0.88707711  1.0786517 
  0.97135417   0.95934552   0.88587218  1.0294906 
  1.015625     0.96341289   0.88466146  0.9846154 
  0.9140625    0.96903828   0.88344516  1.0940171 
  0.96614583   0.97678126   0.88222348  1.0350404 
  0.97135417   0.98763179   0.88099663  1.0294906 
  1.00260417   1.00309891   0.8797648   0.9974026 
  1.04947917   1.02792516   0.87852821  0.9528536 
  1.18229167   1.07660469   0.87728706  0.845815  
  1.22916667   1.18972983   0.87604155  0.8135593 
  1.61979167   1.45291913   0.87479189  0.6173633 
  2.0546875    1.98164381   0.87353827  0.486692  
  2.62239583   2.82554799   0.87228091  0.3813307 
  3.71614583   3.82289149   0.87102     0.269096  
  4.82552083   4.53274869   0.86975576  0.2072315 
  4.85416667   4.52681226   0.86848838  0.2060086 
  3.8203125    4.02325616   0.86721806  0.2617587 
  2.98958333   3.54958475   0.86594502  0.3344948 
  2.90625      3.27731344   0.86466945  0.344086  
  2.85677083   2.98711773   0.86339156  0.3500456 
  2.45052083   2.4972219    0.86211154  0.4080765 
  1.63541667   1.94038308   0.8608296   0.611465  
  1.10677083   1.48982619   0.85954594  0.9035294 
  1.04947917   1.20784552   0.85826075  0.9528536 
  0.96614583   1.06350974   0.85697425  1.0350404 
  0.96875      0.99714413   0.85568663  1.0322581 
  0.875        0.96490481   0.85439808  1.1428571 
  0.859375     0.94624384   0.85310881  1.1636364 
  0.9296875    0.9340909    0.85181901  1.0756303 
  0.875        0.9266592    0.85052888  1.1428571 
  0.90364583   0.92332217   0.84923861  1.1066282 
  0.90625      0.92259452   0.8479484   1.1034483 
  0.8046875    0.92133853   0.84665844  1.2427184 
  0.8671875    0.91627854   0.84536892  1.1531532 
  0.7734375    0.90826063   0.84408005  1.2929293 
  0.8203125    0.90071077   0.842792    1.2190476 
  0.79947917   0.89498444   0.84150496  1.2508143 
  0.78645833   0.88973326   0.84021914  1.2715232 
  0.86197917   0.88343841   0.83893471  1.1601208 
  0.68229167   0.87672068   0.83765186  1.4656489 
  0.7734375    0.87076305   0.83637078  1.2929293 
  0.6953125    0.86606601   0.83509165  1.4382022 
  0.74739583   0.86247079   0.83381465  1.3379791 
  0.796875     0.85956854   0.83253996  1.254902  
  0.734375     0.85703028   0.83126778  1.3617021 
  0.70572917   0.85468493   0.82999827  1.4169742 
  0.72135417   0.85246178   0.82873161  1.3862816 
  0.76302083   0.85033163   0.82746798  1.3105802 
  0.734375     0.84827903   0.82620756  1.3617021 
  0.69791667   0.84629334   0.82495052  1.4328358 
  0.8203125    0.84436646   0.82369702  1.2190476 
  0.8125       0.84249171   0.82244725  1.2307692 
  0.74739583   0.84066377   0.82120136  1.3379791 
  0.79427083   0.83887805   0.81995954  1.2590164 
  0.71875      0.83713077   0.81872193  1.3913043 
  0.76041667   0.8354187    0.81748872  1.3150685 
  0.77604167   0.83373908   0.81626005  1.2885906 
  0.71354167   0.83208951   0.8150361   1.4014599 
  0.77604167   0.83046795   0.81381702  1.2885906 
  0.8046875    0.82887261   0.81260296  1.2427184 
  0.6796875    0.82730188   0.81139409  1.4712644 
  0.73177083   0.82575444   0.81019055  1.366548  
  0.78385417   0.82422906   0.80899251  1.2757475 
  0.72135417   0.82272466   0.8078001   1.3862816 
  0.78645833   0.82124034   0.80661348  1.2715232 
  0.671875     0.81977525   0.8054328   1.4883721 
  0.81770833   0.81832867   0.8042582   1.2229299 
  0.73177083   0.81689994   0.80308981  1.366548  
  0.73697917   0.8154885    0.8019278   1.3568905 
  0.70572917   0.81409382   0.80077228  1.4169742 
  0.72135417   0.81271548   0.7996234   1.3862816 
  0.75         0.81135306   0.7984813   1.3333333 
  0.79947917   0.81000621   0.7973461   1.2508143 
  0.77864583   0.80867463   0.79621795  1.2842809 
  0.81770833   0.80735806   0.79509695  1.2229299 
  0.6953125    0.80605625   0.79398325  1.4382022 
  0.765625     0.80476901   0.79287697  1.3061224 
  0.74479167   0.80349617   0.79177823  1.3426573 
  0.6953125    0.8022376    0.79068715  1.4382022 
  0.71875      0.80099317   0.78960384  1.3913043 
  0.71875      0.79976281   0.78852844  1.3913043 
  0.8359375    0.79854639   0.78746104  1.1962617 
  0.7421875    0.79734399   0.78640176  1.3473684 
  0.7578125    0.79615558   0.78535071  1.3195876 
  0.74739583   0.79498114   0.784308    1.3379791 
  0.73958333   0.79382073   0.78327373  1.3521127 
  0.734375     0.79267447   0.78224801  1.3617021 
  0.859375     0.79154232   0.78123093  1.1636364 
  0.76822917   0.79042475   0.7802226   1.3016949 
  0.66145833   0.78932183   0.77922311  1.511811  
  0.75         0.78823382   0.77823256  1.3333333 
  0.7578125    0.78716101   0.77725103  1.3195876 
  0.78125      0.78610398   0.77627861  1.28      
  0.703125     0.7850632    0.7753154   1.4222222 
  0.79427083   0.7840527    0.77436148  1.2590164 
  0.68489583   0.78306434   0.77341693  1.460076  
  0.6875       0.78207738   0.77248182  1.4545455 
  0.76302083   0.7811107    0.77155625  1.3105802 
  0.79166667   0.78016611   0.77064028  1.2631579 
  0.71614583   0.77924597   0.76973399  1.3963636 
  0.703125     0.77836887   0.76883744  1.4222222 
  0.71875      0.77750824   0.76795071  1.3913043 
  0.7109375    0.77668526   0.76707386  1.4065934 
  0.78125      0.77590819   0.76620696  1.28      
  0.80729167   0.77518897   0.76535007  1.2387097 
  0.76041667   0.7745468    0.76450324  1.3150685 
  0.73958333   0.77401964   0.76366654  1.3521127 
  0.79166667   0.77370988   0.76284002  1.2631579 
  0.7578125    0.77392929   0.76202372  1.3195876 
  0.75         0.77551678   0.76121771  1.3333333 
  0.76302083   0.78018081   0.76042203  1.3105802 
  0.80729167   0.79015758   0.75963672  1.2387097 
  0.70052083   0.80637329   0.75886182  1.4275093 
  0.72395833   0.82568437   0.75809739  1.381295  
  0.79427083   0.83954453   0.75734344  1.2590164 
  0.83854167   0.83916239   0.75660003  1.1925466 
  0.8359375    0.82806727   0.75586718  1.1962617 
  0.81510417   0.81713146   0.75514493  1.2268371 
  0.80989583   0.81114789   0.7544333   1.2347267 
  0.74479167   0.80666564   0.75373233  1.3426573 
  0.83072917   0.79838257   0.75304203  1.2037618 
  0.77864583   0.78741801   0.75236243  1.2842809 
  0.83333333   0.77822674   0.75169354  1.2       
  0.7578125    0.77393521   0.75103539  1.3195876 
  0.82552083   0.7754932    0.750388    1.2113565 
  0.89322917   0.78166545   0.74975136  1.1195335 
  0.87239583   0.78898875   0.7491255   1.1462687 
  0.82552083   0.79233433   0.74851043  1.2113565 
  0.83333333   0.78910673   0.74790614  1.2       
  0.89322917   0.7829681    0.74731265  1.1195335 
  0.80208333   0.77826133   0.74672996  1.2467532 
  0.80989583   0.77566248   0.74615806  1.2347267 
  0.77864583   0.77272095   0.74559695  1.2842809 
  0.80989583   0.76776949   0.74504664  1.2347267 
  0.79166667   0.76205961   0.74450711  1.2631579 
  0.78385417   0.75723403   0.74397835  1.2757475 
  0.79947917   0.75393244   0.74346035  1.2508143 
  0.7578125    0.7519339    0.74295311  1.3195876 
  0.68489583   0.75071183   0.7424566   1.460076  
  0.72395833   0.74985382   0.74197081  1.381295  
  0.71354167   0.74915042   0.74149572  1.4014599 
  0.62760417   0.74852076   0.74103131  1.593361  
  0.76302083   0.74793675   0.74057755  1.3105802 
  0.67708333   0.74738722   0.74013442  1.4769231 
  0.71614583   0.74686624   0.7397019   1.3963636 
  0.65104167   0.74636992   0.73927995  1.536     
  0.72395833   0.74589554   0.73886854  1.381295  
  0.76302083   0.74544109   0.73846764  1.3105802 
  0.71354167   0.74500509   0.73807722  1.4014599 
  0.75520833   0.74458639   0.73769724  1.3241379 
  0.68489583   0.74418413   0.73732765  1.460076  
  0.70052083   0.74379762   0.73696843  1.4275093 
  0.703125     0.74342631   0.73661952  1.4222222 
  0.71614583   0.74306979   0.73628088  1.3963636 
  0.65104167   0.74272771   0.73595247  1.536     
  0.734375     0.74239978   0.73563425  1.3617021 
  0.70572917   0.7420858    0.73532615  1.4169742 
  0.7578125    0.7417856    0.73502813  1.3195876 
  0.67447917   0.74149902   0.73474014  1.4826255 
  0.86197917   0.74122598   0.73446212  1.1601208 
  0.72916667   0.74096638   0.73419401  1.3714286 
  0.73697917   0.7407202    0.73393576  1.3568905 
  0.78385417   0.7404874    0.73368732  1.2757475 
  0.78125      0.74026798   0.73344861  1.28      
  0.7421875    0.74006684   0.73321957  1.3473684 
  0.74479167   0.73987428   0.73300015  1.3426573 
  0.76041667   0.73969523   0.73279027  1.3150685 
  0.76302083   0.73952977   0.73258988  1.3105802 
  0.80989583   0.739378     0.73239889  1.2347267 
  0.77604167   0.73924006   0.73221724  1.2885906 
  0.6953125    0.73911856   0.73204487  1.4382022 
  0.74739583   0.7390088    0.73188169  1.3379791 
  0.7578125    0.73891346   0.73172763  1.3195876 
  0.8125       0.73883277   0.73158262  1.2307692 
  0.703125     0.73876888   0.73144659  1.4222222 
  0.65625      0.73871932   0.73131944  1.5238095 
  0.73958333   0.73868465   0.73120111  1.3521127 
  0.72395833   0.73866616   0.73109151  1.381295  
  0.7421875    0.73866438   0.73099057  1.3473684 
  0.70572917   0.73867991   0.73089819  1.4169742 
  0.63020833   0.73871479   0.7308143   1.5867769 
  0.74479167   0.73876718   0.73073881  1.3426573 
  0.7578125    0.73883933   0.73067164  1.3195876 
  0.6953125    0.73893233   0.73061269  1.4382022 
  0.78125      0.73904745   0.73056188  1.28      
  0.6875       0.73918615   0.73051912  1.4545455 
  0.69270833   0.73935016   0.73048432  1.443609  
  0.66666667   0.7395415    0.73045739  1.5       
  0.7265625    0.7397626    0.73043823  1.3763441 
  0.73177083   0.7400163    0.73042676  1.366548  
  0.76041667   0.74030608   0.73042288  1.3150685 
  0.75520833   0.74063606   0.7304265   1.3241379 
  0.75         0.74101135   0.73043751  1.3333333 
  0.7421875    0.74143823   0.73045583  1.3473684 
  0.75         0.74192454   0.73048135  1.3333333 
  0.73958333   0.74248023   0.73051398  1.3521127 
  0.671875     0.7431181    0.73055363  1.4883721 
  0.73958333   0.74385499   0.73060018  1.3521127 
  0.69791667   0.74471356   0.73065355  1.4328358 
  0.71875      0.74572636   0.73071362  1.3913043 
  0.73697917   0.74694708   0.73078031  1.3568905 
  0.83072917   0.74849397   0.73085351  1.2037618 
  0.72916667   0.75069017   0.73093312  1.3714286 
  0.765625     0.75440466   0.73101903  1.3061224 
  0.72395833   0.76153102   0.73111114  1.381295  
  0.796875     0.77496017   0.73120935  1.254902  
  0.8671875    0.79693793   0.73131355  1.1531532 
  0.96875      0.82573423   0.73142365  1.0322581 
  1.03645833   0.85284997   0.73153953  0.9648241 
  0.98958333   0.86504353   0.7316611   1.0105263 
  1.03125      0.8589422    0.73178824  0.969697  
  0.98177083   0.84785203   0.73192085  1.0185676 
  0.953125     0.8442222    0.73205882  1.0491803 
  1.046875     0.85052737   0.73220206  0.9552239 
  0.9375       0.86297673   0.73235045  1.0666667 
  0.9453125    0.88597208   0.73250388  1.0578512 
  0.9765625    0.94455219   0.73266226  1.024     
  1.2265625    1.07940618   0.73282547  0.8152866 
  1.2734375    1.32710634   0.73299341  0.7852761 
  1.67447917   1.68024476   0.73316597  0.5972006 
  1.99479167   2.04269034   0.73334305  0.5013055 
  2.234375     2.23286469   0.73352454  0.4475524 
  2.16145833   2.14523138   0.73371032  0.4626506 
  1.921875     1.91716816   0.73390031  0.5203252 
  1.94791667   1.73691545   0.73409438  0.513369  
  1.73958333   1.65832469   0.73429243  0.5748503 
  1.67447917   1.59710699   0.73449436  0.5972006 
  1.52864583   1.45441264   0.73470007  0.6541738 
  1.375        1.25028114   0.73490943  0.7272727 
  1.1875       1.05871514   0.73512236  0.8421053 
  1.0078125    0.92246948   0.73533874  0.9922481 
  0.87760417   0.84440348   0.73555847  1.1394659 
  0.79166667   0.8060904    0.73578145  1.2631579 
  0.73958333   0.78817944   0.73600756  1.3521127 
  0.84114583   0.77894558   0.73623671  1.1888545 
  0.8359375    0.77325286   0.73646879  1.1962617 
  0.84635417   0.76924188   0.7367037   1.1815385 
  0.78125      0.76623901   0.73694134  1.28      
  0.71614583   0.76393898   0.7371816   1.3963636 
  0.82291667   0.7621611    0.73742438  1.2151899 
  0.76822917   0.76078369   0.73766959  1.3016949 
  0.75520833   0.75971985   0.73791711  1.3241379 
  0.81770833   0.75890618   0.73816685  1.2229299 
  0.79947917   0.75829558   0.7384187   1.2508143 
  0.765625     0.75785237   0.73867258  1.3061224 
  0.72916667   0.75754939   0.73892838  1.3714286 
  0.73177083   0.75736556   0.73918599  1.366548  
  0.70833333   0.75728447   0.73944534  1.4117647 
  0.796875     0.75729327   0.73970631  1.254902  
  0.81510417   0.75738185   0.73996881  1.2268371 
  0.72916667   0.75754229   0.74023275  1.3714286 
  0.77083333   0.75776835   0.74049803  1.2972973 
  0.765625     0.75805532   0.74076455  1.3061224 
  0.7265625    0.75839955   0.74103224  1.3763441 
  0.75260417   0.75879846   0.74130098  1.3287197 
  0.78125      0.75925031   0.74157069  1.28      
  0.79427083   0.75975413   0.74184128  1.2590164 
  0.6875       0.76030965   0.74211266  1.4545455 
  0.67447917   0.76091722   0.74238474  1.4826255 
  0.77083333   0.76157795   0.74265743  1.2972973 
  0.7109375    0.76229339   0.74293065  1.4065934 
  0.73697917   0.76306594   0.7432043   1.3568905 
  0.73697917   0.76389853   0.7434783   1.3568905 
  0.6796875    0.76479487   0.74375258  1.4712644 
  0.79166667   0.7657595    0.74402703  1.2631579 
  0.75260417   0.76679778   0.74430159  1.3287197 
  0.7734375    0.76791614   0.74457616  1.2929293 
  0.71614583   0.76912208   0.74485068  1.3963636 
  0.68229167   0.77042462   0.74512505  1.4656489 
  0.73697917   0.77183404   0.74539921  1.3568905 
  0.77864583   0.77336287   0.74567306  1.2842809 
  0.83854167   0.77502562   0.74594655  1.1925466 
  0.70572917   0.77683952   0.74621958  1.4169742 
  0.703125     0.77882517   0.74649209  1.4222222 
  0.83854167   0.781007     0.746764    1.1925466 
  0.83854167   0.78341468   0.74703524  1.1925466 
  0.78125      0.78608365   0.74730575  1.28      
  0.7578125    0.78905799   0.74757544  1.3195876 
  0.78125      0.7923906    0.74784425  1.28      
  0.73958333   0.79614821   0.74811212  1.3521127 
  0.70052083   0.80041463   0.74837897  1.4275093 
  0.69791667   0.80529504   0.74864475  1.4328358 
  0.76302083   0.81092387   0.74890938  1.3105802 
  0.72916667   0.81747876   0.74917281  1.3714286 
  0.7890625    0.82519239   0.74943497  1.2673267 
  0.88020833   0.83437709   0.7496958   1.1360947 
  0.91145833   0.8454584    0.74995525  1.0971429 
  0.79947917   0.85904309   0.75021325  1.2508143 
  0.83333333   0.87601387   0.75046975  1.2       
  0.95052083   0.89783153   0.7507247   1.0520548 
  0.953125     0.9276146    0.75097803  1.0491803 
  0.984375     0.97388061   0.7512297   1.015873  
  1.07552083   1.06106892   0.75147965  0.9297821 
  1.19791667   1.24926054   0.75172783  0.8347826 
  1.68229167   1.65007019   0.7519742   0.5944272 
  2.33333333   2.39601416   0.75221871  0.4285714 
  3.57291667   3.52664765   0.7524613   0.2798834 
  5.33072917   4.83405929   0.75270194  0.1875916 
  7.11197917   5.79088272   0.75294058  0.1406078 
  7.1640625    5.83776509   0.75317718  0.1395856 
  5.1640625    5.14040527   0.75341169  0.193646  
  3.67447917   4.39216749   0.75364408  0.2721474 
  3.765625     4.00527466   0.75387431  0.2655602 
  4.09375      3.89288493   0.75410233  0.2442748 
  4.63541667   3.65569991   0.75432812  0.2157303 
  3.31770833   3.10165304   0.75455164  0.3014129 
  2.34635417   2.4350661    0.75477285  0.4261931 
  1.86979167   1.89729968   0.75499172  0.5348189 
  1.7265625    1.61364041   0.75520823  0.5791855 
  2.18489583   1.63836917   0.75542233  0.4576877 
  2.51041667   2.04175975   0.75563401  0.3983402 
  3.328125     2.92183589   0.75584324  0.3004695 
  4.34114583   4.2773753    0.75604998  0.2303539 
  5.60677083   5.81968491   0.75625422  0.1783558 
  6.08072917   6.88957656   0.75645594  0.164454  
  6.04947917   6.84651183   0.7566551   0.1653035 
  5.80989583   5.95555423   0.7568517   0.1721201 
  5.34114583   5.04886295   0.7570457   0.1872257 
  4.5859375    4.58784999   0.7572371   0.2180579 
  4.52864583   4.44379108   0.75742587  0.2208166 
  4.08333333   4.13107522   0.75761201  0.244898  
  3.51302083   3.42969401   0.75779549  0.2846553 
  2.83854167   2.58512101   0.75797631  0.3522936 
  2.34895833   1.87123115   0.75815444  0.4257206 
  1.87239583   1.39773351   0.75832989  0.5340751 
  1.39583333   1.13842716   0.75850264  0.7164179 
  1.203125     1.01187141   0.75867269  0.8311688 
  1.07291667   0.94976012   0.75884002  0.9320388 
  0.8984375    0.91430986   0.75900464  1.1130435 
  0.92447917   0.89065671   0.75916654  1.0816901 
  0.8359375    0.87290854   0.75932571  1.1962617 
  0.86979167   0.85877446   0.75948216  1.1497006 
  0.7734375    0.8474658    0.75963588  1.2929293 
  0.77864583   0.83818112   0.75978687  1.2842809 
  0.83072917   0.83045425   0.75993514  1.2037618 
  0.6875       0.8238843    0.76008069  1.4545455 
  0.71354167   0.81836213   0.76022353  1.4014599 
  0.78645833   0.81363024   0.76036365  1.2715232 
  0.75260417   0.80954457   0.76050107  1.3287197 
  0.84895833   0.80599379   0.76063579  1.1779141 
  0.73177083   0.80289037   0.76076782  1.366548  
  0.78385417   0.80016235   0.76089718  1.2757475 
  0.75260417   0.79775382   0.76102387  1.3287197 
  0.75         0.79561865   0.76114791  1.3333333 
  0.78125      0.79371927   0.7612693   1.28      
  0.7265625    0.7920235    0.76138807  1.3763441 
  0.7734375    0.79050573   0.76150422  1.2929293 
  0.7734375    0.78914427   0.76161778  1.2929293 
  0.7734375    0.78792051   0.76172876  1.2929293 
  0.72135417   0.78681871   0.76183719  1.3862816 
  0.72395833   0.78582579   0.76194307  1.381295  
  0.6875       0.78493071   0.76204644  1.4545455 
  0.83072917   0.78412329   0.7621473   1.2037618 
  0.84635417   0.78339555   0.76224569  1.1815385 
  0.7578125    0.78274047   0.76234164  1.3195876 
  0.796875     0.78215194   0.76243515  1.254902  
  0.7578125    0.78162468   0.76252626  1.3195876 
  0.73177083   0.78115443   0.762615    1.366548  
  0.84895833   0.78073759   0.76270138  1.1779141 
  0.80989583   0.78037105   0.76278545  1.2347267 
  0.82552083   0.78005234   0.76286722  1.2113565 
  0.74739583   0.77977963   0.76294674  1.3379791 
  0.70052083   0.77955165   0.76302402  1.4275093 
  0.8125       0.77936738   0.7630991   1.2307692 
  0.76041667   0.77922666   0.76317202  1.3150685 
  0.82552083   0.77912974   0.7632428   1.2113565 
  0.70572917   0.77907745   0.76331148  1.4169742 
  0.77604167   0.77907123   0.76337809  1.2885906 
  0.67447917   0.77911328   0.76344267  1.4826255 
  0.73177083   0.77920675   0.76350526  1.366548  
  0.7421875    0.7793554    0.76356589  1.3473684 
  0.77604167   0.77956451   0.76362459  1.2885906 
  0.71875      0.7798405    0.76368142  1.3913043 
  0.73177083   0.78019166   0.7637364   1.366548  
  0.75260417   0.78062814   0.76378958  1.3287197 
  0.71614583   0.78116311   0.76384099  1.3963636 
  0.74739583   0.78181283   0.76389068  1.3379791 
  0.63541667   0.7825983    0.76393868  1.5737705 
  0.75520833   0.7835463    0.76398504  1.3241379 
  0.75         0.78469131   0.76402981  1.3333333 
  0.765625     0.78607902   0.76407302  1.3061224 
  0.796875     0.78780167   0.76411472  1.254902  
  0.79427083   0.78987593   0.76415494  1.2590164 
  0.84895833   0.79244469   0.76419375  1.1779141 
  0.875        0.79568704   0.76423117  1.1428571 
  0.8125       0.79982296   0.76426727  1.2307692 
  0.765625     0.80517847   0.76430207  1.3061224 
  0.84635417   0.81256837   0.76433563  1.1815385 
  0.84375      0.82407855   0.76436799  1.1851852 
  0.85677083   0.84550007   0.76439921  1.1671733 
  0.94791667   0.89118244   0.76442932  1.0549451 
  1.08333333   0.98850782   0.76445838  0.9230769 
  1.19010417   1.1726025    0.76448643  0.8402626 
  1.6015625    1.4615475    0.76451353  0.6243902 
  1.84895833   1.81733543   0.76453971  0.5408451 
  2.3046875    2.1196172    0.76456504  0.4338983 
  2.75         2.20447932   0.76458955  0.3636364 
  2.42447917   2.04773133   0.7646133   0.4124597 
  2.078125     1.81718866   0.76463633  0.481203  
  1.796875     1.66371941   0.7646587   0.5565217 
  1.70572917   1.61592371   0.76468046  0.5862595 
  1.86458333   1.59125688   0.76470165  0.5363128 
  1.6875       1.48816877   0.76472232  0.5925926 
  1.5          1.30914586   0.76474254  0.6666667 
  1.21354167   1.1231668    0.76476233  0.8240343 
  1.0546875    0.9791459    0.76478176  0.9481481 
  0.9609375    0.88931091   0.76480088  1.0406504 
  0.7734375    0.8417839    0.76481973  1.2929293 
  0.79427083   0.81866937   0.76483837  1.2590164 
  0.81510417   0.80693679   0.76485685  1.2268371 
  0.84114583   0.79998586   0.76487521  1.1888545 
  0.82552083   0.79516136   0.76489351  1.2113565 
  0.74479167   0.79149449   0.7649118   1.3426573 
  0.75520833   0.78858876   0.76493012  1.3241379 
  0.78385417   0.78623606   0.76494853  1.2757475 
  0.86197917   0.78430204   0.76496708  1.1601208 
  0.703125     0.78269235   0.76498582  1.4222222 
  0.78385417   0.78133818   0.76500479  1.2757475 
  0.72916667   0.78018818   0.76502405  1.3714286 
  0.71614583   0.77920385   0.76504364  1.3963636 
  0.6640625    0.77835512   0.76506361  1.5058824 
  0.72916667   0.77761885   0.76508402  1.3714286 
  0.72395833   0.7769767    0.76510491  1.381295  
  0.72135417   0.77638037   0.76512633  1.3862816 
  0.70052083   0.77588575   0.76514833  1.4275093 
  0.80729167   0.77544931   0.76517095  1.2387097 
  0.765625     0.77506335   0.76519425  1.3061224 
  0.75520833   0.77470438   0.76521827  1.3241379 
  0.73697917   0.77440112   0.76524305  1.3568905 
  0.63541667   0.77413201   0.76526865  1.5737705 
  0.7109375    0.77389343   0.7652951   1.4065934 
  0.69010417   0.77368218   0.76532246  1.4490566 
  0.78645833   0.77349564   0.76535077  1.2715232 
  0.7578125    0.77333162   0.76538007  1.3195876 
  0.77864583   0.77318824   0.76541042  1.2842809 
  0.75260417   0.77306395   0.76544184  1.3287197 
  0.74479167   0.77295741   0.7654744   1.3426573 
  0.71875      0.77286761   0.76550812  1.3913043 
  0.7109375    0.77279363   0.76554306  1.4065934 
  0.73958333   0.77273479   0.76557925  1.3521127 
  0.72916667   0.77269057   0.76561673  1.3714286 
  0.73177083   0.77266066   0.76565555  1.366548  
  0.70052083   0.77264486   0.76569575  1.4275093 
  0.71875      0.77264289   0.76573736  1.3913043 
  0.77864583   0.77265539   0.76578043  1.2842809 
  0.70052083   0.77268245   0.765825    1.4275093 
  0.75         0.77272461   0.76587109  1.3333333 
  0.71875      0.77278251   0.76591876  1.3913043 
  0.75         0.77285742   0.76596803  1.3333333 
  0.7890625    0.77295058   0.76601894  1.2673267 
  0.72135417   0.77306375   0.76607153  1.3862816 
  0.7109375    0.77319916   0.76612584  1.4065934 
  0.77083333   0.77335967   0.76618189  1.2972973 
  0.8125       0.77354896   0.76623972  1.2307692 
  0.77604167   0.7737717    0.76629936  1.2885906 
  0.7890625    0.77403402   0.76636085  1.2673267 
  0.71614583   0.77434385   0.76642422  1.3963636 
  0.74479167   0.77471183   0.76648948  1.3426573 
  0.71875      0.77515204   0.76655669  1.3913043 
  0.73958333   0.77568404   0.76662586  1.3521127 
  0.71614583   0.77633516   0.76669702  1.3963636 
  0.75520833   0.77714625   0.76677021  1.3241379 
  0.77864583   0.7781878    0.76684544  1.2842809 
  0.734375     0.77961651   0.76692274  1.3617021 
  0.73697917   0.78185489   0.76700214  1.3568905 
  0.78125      0.78603515   0.76708366  1.28      
  0.7109375    0.7947373    0.76716733  1.4065934 
  0.76041667   0.81242703   0.76725317  1.3150685 
  0.68229167   0.84415368   0.76734119  1.4656489 
  0.85677083   0.89135851   0.76743143  1.1671733 
  0.99739583   0.94640771   0.76752389  1.002611  
  1.00260417   0.98962711   0.7676186   0.9974026 
  1.25         0.99772784   0.76771558  0.8       
  0.95833333   0.97122988   0.76781485  1.0434783 
  0.84895833   0.93622088   0.76791642  1.1779141 
  0.93229167   0.91434573   0.7680203   1.0726257 
  0.9609375    0.9099365    0.76812651  1.0406504 
  0.89583333   0.91212094   0.76823507  1.1162791 
  0.93489583   0.90751081   0.76834599  1.0696379 
  0.9140625    0.89756174   0.76845928  1.0940171 
  0.84895833   0.89345029   0.76857494  1.1779141 
  0.93489583   0.8998636    0.768693    1.0696379 
  0.921875     0.90958234   0.76881346  1.0847458 
  0.98177083   0.90824952   0.76893632  1.0185676 
  0.86458333   0.89119277   0.76906161  1.1566265 
  0.90104167   0.86947998   0.76918931  1.1098266 
  0.85677083   0.85456754   0.76931944  1.1671733 
  0.96875      0.84937776   0.769452    1.0322581 
  0.86979167   0.84814494   0.769587    1.1497006 
  0.72395833   0.84184888   0.76972443  1.381295  
  0.85416667   0.82822521   0.7698643   1.1707317 
  0.73697917   0.81228398   0.77000661  1.3568905 
  0.80989583   0.7988224    0.77015137  1.2347267 
  0.73697917   0.7897428    0.77029856  1.3568905 
  0.73958333   0.78461838   0.77044818  1.3521127 
  0.70833333   0.78205777   0.77060024  1.4117647 
  0.734375     0.78081714   0.77075473  1.3617021 
  0.81770833   0.78016926   0.77091164  1.2229299 
  0.7890625    0.77978719   0.77107097  1.2673267 
  0.75520833   0.77954461   0.77123271  1.3241379 
  0.79427083   0.77939172   0.77139685  1.2590164 
  0.73958333   0.77930465   0.77156339  1.3521127 
  0.75520833   0.7792688    0.77173231  1.3241379 
  0.71354167   0.77927394   0.7719036   1.4014599 
  0.77864583   0.77931262   0.77207726  1.2842809 
  0.71354167   0.77937953   0.77225326  1.4014599 
  0.76822917   0.77946984   0.7724316   1.3016949 
  0.7109375    0.77958044   0.77261226  1.4065934 
  0.828125     0.77970871   0.77279522  1.2075472 
  0.75520833   0.77985257   0.77298048  1.3241379 
  0.79427083   0.78001032   0.773168    1.2590164 
  0.70833333   0.78018057   0.77335778  1.4117647 
  0.765625     0.78036232   0.77354979  1.3061224 
  0.7421875    0.78055439   0.77374401  1.3473684 
  0.7890625    0.78075612   0.77394043  1.2673267 
  0.69791667   0.78096684   0.77413902  1.4328358 
  0.78125      0.78118603   0.77433975  1.28      
  0.77604167   0.78141582   0.77454261  1.2885906 
  0.73697917   0.78165063   0.77474757  1.3568905 
  0.70833333   0.78189271   0.77495461  1.4117647 
  0.74479167   0.78214179   0.77516369  1.3426573 
  0.79166667   0.78239763   0.77537479  1.2631579 
  0.7578125    0.78266001   0.77558788  1.3195876 
  0.74739583   0.78292877   0.77580294  1.3379791 
  0.77864583   0.78320508   0.77601993  1.2842809 
  0.75260417   0.78348622   0.77623883  1.3287197 
  0.80729167   0.78378193   0.77645959  1.2387097 
  0.77604167   0.78407506   0.7766822   1.2885906 
  0.85416667   0.78437409   0.77690661  1.1707317 
  0.90625      0.78467893   0.77713279  1.1034483 
  0.97135417   0.78498958   0.77736071  1.0294906 
  1.00520833   0.78530599   0.77759033  0.9948187 
  1.0390625    0.78562799   0.77782162  0.962406  
  1.1484375    0.78596025   0.77805454  0.8707483 
  0.984375     0.78629405   0.77828905  1.015873  
  0.85677083   0.78663368   0.77852511  1.1671733 
  0.83333333   0.78697915   0.77876268  1.2       
  1.03385417   0.78733018   0.77900173  0.9672544 
  0.93489583   0.78768752   0.77924221  1.0696379 
  0.953125     0.78805114   0.77948408  1.0491803 
  1.00520833   0.78842061   0.7797273   0.9948187 
  0.91145833   0.78879627   0.77997183  1.0971429 
  0.78125      0.78917824   0.78021762  1.28      
  0.83072917   0.7895666    0.78046462  1.2037618 
  0.8671875    0.78996147   0.78071281  1.1531532 
  0.79947917   0.79036299   0.78096212  1.2508143 
  0.80729167   0.790771     0.78121251  1.2387097 
  0.81770833   0.79118626   0.78146393  1.2229299 
  0.77083333   0.79160863   0.78171635  1.2972973 
  0.80989583   0.79203833   0.78196971  1.2347267 
  0.82552083   0.79247539   0.78222396  1.2113565 
  0.86979167   0.79292024   0.78247905  1.1497006 
  0.88020833   0.79337308   0.78273493  1.1360947 
  0.79427083   0.79383412   0.78299156  1.2590164 
  0.7578125    0.79430359   0.78324889  1.3195876 
  0.765625     0.7947818    0.78350685  1.3061224 
  0.80729167   0.79526905   0.78376541  1.2387097 
  0.8515625    0.7957657    0.7840245   1.1743119 
  0.84635417   0.79627203   0.78428408  1.1815385 
  0.72135417   0.79678848   0.78454409  1.3862816 
  0.7109375    0.79731547   0.78480449  1.4065934 
  0.80729167   0.79785339   0.78506521  1.2387097 
  0.79947917   0.7984027    0.7853262   1.2508143 
  0.82552083   0.79896394   0.78558741  1.2113565 
  0.74739583   0.79953767   0.78584878  1.3379791 
  0.76041667   0.8001244    0.78611025  1.3150685 
  0.72135417   0.80072483   0.78637178  1.3862816 
  0.73697917   0.80133959   0.78663331  1.3568905 
  0.6875       0.80196943   0.78689477  1.4545455 
  0.70833333   0.80261507   0.78715611  1.4117647 
  0.76822917   0.80327742   0.78741728  1.3016949 
  0.84375      0.80395812   0.78767822  1.1851852 
  0.68489583   0.80465763   0.78793887  1.460076  
  0.74739583   0.80537578   0.78819918  1.3379791 
  0.70572917   0.80611471   0.78845908  1.4169742 
  0.7890625    0.80687568   0.78871852  1.2673267 
  0.78125      0.80765991   0.78897743  1.28      
  0.76041667   0.80846899   0.78923577  1.3150685 
  0.80208333   0.80930485   0.78949347  1.2467532 
  0.7578125    0.81016888   0.78975047  1.3195876 
  0.77864583   0.81106237   0.79000672  1.2842809 
  0.8046875    0.81198782   0.79026216  1.2427184 
  0.77083333   0.81294752   0.79051672  1.2972973 
  0.73697917   0.81394375   0.79077035  1.3568905 
  0.76822917   0.81498835   0.79102299  1.3016949 
  0.7890625    0.81607333   0.79127457  1.2673267 
  0.74479167   0.81719634   0.79152505  1.3426573 
  0.8203125    0.81836797   0.79177436  1.2190476 
  0.78385417   0.81959224   0.79202245  1.2757475 
  0.88020833   0.82090275   0.79226924  1.1360947 
  0.78385417   0.82224539   0.79251469  1.2757475 
  0.8125       0.82365922   0.79275874  1.2307692 
  0.78385417   0.82514436   0.79300132  1.2757475 
  0.8125       0.82670457   0.79324238  1.2307692 
  0.82552083   0.82836075   0.79348186  1.2113565 
  0.78385417   0.83010744   0.79371969  1.2757475 
  0.8046875    0.83196376   0.79395583  1.2427184 
  0.77083333   0.83391753   0.79419021  1.2972973 
  0.77604167   0.8359942    0.79442278  1.2885906 
  0.79427083   0.83820651   0.79465347  1.2590164 
  0.88020833   0.84056863   0.79488224  1.1360947 
  0.828125     0.84310141   0.79510901  1.2075472 
  0.9453125    0.84581644   0.79533374  1.0578512 
  0.89583333   0.84873225   0.79555637  1.1162791 
  0.94010417   0.85187644   0.79577684  1.0637119 
  0.93229167   0.85527565   0.79599509  1.0726257 
  0.84635417   0.85896205   0.79621108  1.1815385 
  0.86197917   0.86297239   0.79642473  1.1601208 
  0.78645833   0.86734861   0.79663601  1.2715232 
  0.90104167   0.87214116   0.79684484  1.1098266 
  0.92708333   0.87740859   0.79705118  1.0786517 
  0.87239583   0.88322121   0.79725498  1.1462687 
  0.89322917   0.88966078   0.79745618  1.1195335 
  0.84895833   0.89682801   0.79765472  1.1779141 
  0.85416667   0.90484394   0.79785055  1.1707317 
  0.84635417   0.91385457   0.79804363  1.1815385 
  0.8828125    0.92403914   0.79823389  1.1327434 
  0.859375     0.93562265   0.79842129  1.1636364 
  0.96614583   0.94888602   0.79860578  1.0350404 
  0.94270833   0.96418134   0.7987873   1.0607735 
  0.95833333   0.98196539   0.79896581  1.0434783 
  1.0078125    1.00282816   0.79914125  0.9922481 
  1.1171875    1.02755133   0.79931357  0.8951049 
  1.140625     1.05717559   0.79948274  0.8767123 
  1.21354167   1.09314749   0.7996487   0.8240343 
  1.23697917   1.13756063   0.79981139  0.8084211 
  1.3671875    1.19383535   0.79997079  0.7314286 
  1.45833333   1.26898645   0.80012683  0.6857143 
  1.69010417   1.38043647   0.80027948  0.5916795 
  1.8515625    1.57320832   0.80042869  0.5400844 
  2.2578125    1.95059297   0.80057442  0.4429066 
  3.02604167   2.70360569   0.80071662  0.3304647 
  4.16927083   4.0879393    0.80085525  0.2398501 
  6.20833333   6.2866856    0.80099026  0.1610738 
  9.6171875    9.17113738   0.80112163  0.1039805 
  13           12.08591739  0.8012493   0.0769231 
  15.84114583  13.87887068  0.80137324  0.0631267 
  15.890625    13.71845982  0.8014934   0.0629302 
  13.02083333  12.23771102  0.80160976  0.0768    
  10.43229167  10.95173485  0.80172226  0.0958562 
  9.88020833   10.93876338  0.80183089  0.1012124 
  12.07552083  12.31127769  0.80193559  0.0828122 
  14.35416667  14.18338832  0.80203634  0.0696662 
  15.78645833  15.12262562  0.80213309  0.0633454 
  14.10677083  14.18331537  0.80222583  0.0708879 
  11.58333333  11.74090416  0.80231451  0.0863309 
  8.72135417   9.05218693   0.8023991   0.1146611 
  6.64322917   7.10053815   0.80247958  0.1505292 
  5.7421875    6.15733348   0.8025559   0.1741497 
  5.67447917   5.87611788   0.80262806  0.1762276 
  5.54427083   5.59787635   0.802696    0.1803664 
  4.94270833   4.89094339   0.80275972  0.2023182 
  3.77604167   3.8856664    0.80281917  0.2648276 
  2.7890625    2.90352753   0.80287435  0.3585434 
  1.9765625    2.14541874   0.80292521  0.5059289 
  1.70052083   1.65578324   0.80297174  0.5880551 
  1.36458333   1.37846881   0.80301392  0.7328244 
  1.20833333   1.2303548    0.80305173  0.8275862 
  1.11197917   1.14776124   0.80308514  0.8992974 
  1.04166667   1.09541551   0.80311413  0.96      
  0.90364583   1.05757312   0.80313869  1.1066282 
  0.87760417   1.02791617   0.80315879  1.1394659 
  0.99479167   1.00374946   0.80317443  1.0052356 
  0.93489583   0.98366108   0.80318559  1.0696379 
  0.71875      0.96673982   0.80319224  1.3913043 
  0.86979167   0.95234655   0.80319439  1.1497006 
  0.81770833   0.93998864   0.80319201  1.2229299 
  0.9765625    0.92930168   0.80318509  1.024     
  0.73697917   0.91999842   0.80317362  1.3568905 
  0.8203125    0.9118557    0.8031576   1.2190476 
  0.77083333   0.90469545   0.80313702  1.2972973 
  0.83072917   0.89837201   0.80311186  1.2037618 
  0.89322917   0.89276974   0.80308212  1.1195335 
  0.77864583   0.8877941    0.8030478   1.2842809 
  0.84635417   0.88336707   0.80300889  1.1815385 
  0.84895833   0.87942336   0.80296539  1.1779141 
  0.859375     0.87591009   0.8029173   1.1636364 
  0.86458333   0.87278394   0.80286461  1.1566265 
  0.78385417   0.87000725   0.80280733  1.2757475 
  0.8125       0.86755072   0.80274545  1.2307692 
  0.82552083   0.86539034   0.80267899  1.2113565 
  0.81770833   0.86350687   0.80260794  1.2229299 
  0.7734375    0.86188507   0.8025323   1.2929293 
  0.84114583   0.86051481   0.80245208  1.1888545 
  0.83854167   0.85938979   0.8023673   1.1925466 
  0.921875     0.85850706   0.80227795  1.0847458 
  0.77604167   0.85786822   0.80218404  1.2885906 
  0.8125       0.85747951   0.80208559  1.2307692 
  0.76302083   0.85735183   0.8019826   1.3105802 
  0.75         0.85750081   0.8018751   1.3333333 
  0.82552083   0.85795008   0.80176308  1.2113565 
  0.8125       0.85873021   0.80164657  1.2307692 
  0.78125      0.85988175   0.80152557  1.28      
  0.82291667   0.86145676   0.80140011  1.2151899 
  0.81510417   0.86352517   0.80127021  1.2268371 
  0.7421875    0.8661764    0.80113588  1.3473684 
  0.85416667   0.86952698   0.80099714  1.1707317 
  0.77864583   0.87373515   0.800854    1.2842809 
  0.83072917   0.87900898   0.80070651  1.2037618 
  0.890625     0.88563817   0.80055467  1.122807  
  0.890625     0.89404366   0.80039851  1.122807  
  0.9453125    0.90493656   0.80023805  1.0578512 
  1.01822917   0.91976205   0.80007332  0.9820972 
  0.9375       0.94195657   0.79990435  1.0666667 
  1.04166667   0.97966366   0.79973117  0.96      
  1.15364583   1.04995673   0.7995538   0.8668172 
  1.25260417   1.18186762   0.79937227  0.7983368 
  1.43229167   1.41274869   0.79918662  0.6981818 
  1.94791667   1.77422851   0.79899688  0.513369  
  2.53385417   2.27015313   0.79880308  0.3946557 
  3.22916667   2.85286536   0.79860525  0.3096774 
  3.90625      3.41682587   0.79840343  0.256     
  4.41145833   3.87822888   0.79819766  0.2266824 
  4.29427083   4.21682168   0.79798797  0.2328684 
  4.90364583   4.35225971   0.7977744   0.2039299 
  4.47916667   4.18928038   0.79755699  0.2232558 
  4.16145833   3.81613702   0.79733578  0.2403004 
  3.421875     3.41805195   0.79711082  0.2922374 
  3.31770833   3.0983515    0.79688213  0.3014129 
  2.98177083   2.88470922   0.79664977  0.3353712 
  2.70572917   2.72823249   0.79641379  0.3695861 
  2.66666667   2.51325707   0.79617421  0.375     
  2.30208333   2.18752461   0.7959311   0.4343891 
  1.84114583   1.81847936   0.7956845   0.54314   
  1.44270833   1.4916977    0.79543445  0.6931408 
  1.1796875    1.24847517   0.795181    0.8476821 
  1.09895833   1.09019514   0.7949242   0.9099526 
  1.0234375    0.99738012   0.79466411  0.9770992 
  0.875        0.94622386   0.79440077  1.1428571 
  0.80729167   0.91822038   0.79413424  1.2387097 
  0.8828125    0.90175076   0.79386456  1.1327434 
  0.7734375    0.88982531   0.7935918   1.2929293 
  0.81770833   0.87861365   0.79331601  1.2229299 
  0.81770833   0.86741568   0.79303723  1.2229299 
  0.74739583   0.85710873   0.79275554  1.3379791 
  0.80729167   0.84837657   0.79247097  1.2387097 
  0.73177083   0.84149541   0.7921836   1.366548  
  0.77083333   0.83616274   0.79189348  1.2972973 
  0.65364583   0.83195624   0.79160067  1.5298805 
  0.77864583   0.82849913   0.79130523  1.2842809 
  0.82291667   0.82551675   0.79100722  1.2151899 
  0.72916667   0.82291404   0.7907067   1.3714286 
  0.83854167   0.82058545   0.79040374  1.1925466 
  0.7578125    0.8184805    0.79009839  1.3195876 
  0.75520833   0.81656298   0.78979072  1.3241379 
  0.73697917   0.81480543   0.78948079  1.3568905 
  0.69270833   0.81318539   0.78916867  1.443609  
  0.71614583   0.81168446   0.78885442  1.3963636 
  0.73177083   0.81028706   0.78853812  1.366548  
  0.75520833   0.8089805    0.78821981  1.3241379 
  0.69270833   0.80775391   0.78789958  1.443609  
  0.82552083   0.80659793   0.78757749  1.2113565 
  0.75         0.80550474   0.78725361  1.3333333 
  0.71354167   0.80440818   0.78692801  1.4014599 
  0.75         0.80342146   0.78660075  1.3333333 
  0.8359375    0.80247969   0.78627191  1.1962617 
  0.7421875    0.80157856   0.78594155  1.3473684 
  0.71614583   0.80071416   0.78560976  1.3963636 
  0.75520833   0.79985346   0.78527659  1.3241379 
  0.79947917   0.79905297   0.78494212  1.2508143 
  0.8046875    0.79828028   0.78460642  1.2427184 
  0.71354167   0.79753311   0.78426957  1.4014599 
  0.75520833   0.79680938   0.78393163  1.3241379 
  0.78645833   0.7961074    0.78359269  1.2715232 
  0.7578125    0.79542574   0.78325281  1.3195876 
  0.83854167   0.79476338   0.78291207  1.1925466 
  0.82552083   0.7941201    0.78257054  1.2113565 
  0.78645833   0.79349761   0.7822283   1.2715232 
  0.7578125    0.79290086   0.78188542  1.3195876 
  0.73958333   0.79233897   0.78154198  1.3521127 
  0.78385417   0.79182319   0.78119805  1.2757475 
  0.78385417   0.79135935   0.78085372  1.2757475 
  0.81510417   0.79093694   0.78050904  1.2268371 
  0.6953125    0.79052035   0.78016411  1.4382022 
  0.70833333   0.79005145   0.779819    1.4117647 
  0.70572917   0.78948903   0.77947378  1.4169742 
  0.73697917   0.78886287   0.77912854  1.3568905 
  0.7578125    0.78823956   0.77878334  1.3195876 
  0.74479167   0.78766467   0.77843826  1.3426573 
  0.69010417   0.78714657   0.77809339  1.4490566 
  0.70833333   0.78666004   0.7777488   1.4117647 
  0.765625     0.78616302   0.77740457  1.3061224 
  0.76041667   0.78563298   0.77706077  1.3150685 
  0.6875       0.78508549   0.77671748  1.4545455 
  0.78125      0.78454668   0.77637479  1.28      
  0.765625     0.78403308   0.77603276  1.3061224 
  0.765625     0.78355036   0.77569147  1.3061224 
  0.79427083   0.7830985    0.77535101  1.2590164 
  0.68229167   0.78267988   0.77501144  1.4656489 
  0.76041667   0.78230607   0.77467285  1.3150685 
  0.78125      0.78200028   0.77433532  1.28      
  0.67447917   0.78179195   0.77399892  1.4826255 
  0.72135417   0.78170236   0.77366372  1.3862816 
  0.71354167   0.78172589   0.77332981  1.4014599 
  0.79166667   0.78181133   0.77299726  1.2631579 
  0.79947917   0.78186451   0.77266615  1.2508143 
  0.69270833   0.78182501   0.77233656  1.443609  
  0.73697917   0.78169798   0.77200855  1.3568905 
  0.82291667   0.78145714   0.77168222  1.2151899 
  0.74739583   0.78109086   0.77135762  1.3379791 
  0.71875      0.78074843   0.77103485  1.3913043 
  0.6796875    0.78062153   0.77071396  1.4712644 
  0.75520833   0.78075949   0.77039505  1.3241379 
  0.73697917   0.78103898   0.77007818  1.3568905 
  0.77864583   0.78115731   0.76976342  1.2842809 
  0.7734375    0.780734     0.76945086  1.2929293 
  0.68489583   0.77971345   0.76914056  1.460076  
  0.76302083   0.77846718   0.7688326   1.3105802 
  0.72135417   0.77738442   0.76852704  1.3862816 
  0.76302083   0.77664133   0.76822398  1.3105802 
  0.77083333   0.77618671   0.76792346  1.2972973 
  0.79166667   0.77580524   0.76762558  1.2631579 
  0.70572917   0.77527516   0.76733039  1.4169742 
  0.70052083   0.77456839   0.76703797  1.4275093 
  0.71614583   0.77380932   0.76674838  1.3963636 
  0.83072917   0.77311226   0.76646171  1.2037618 
  0.74479167   0.77252987   0.76617801  1.3426573 
  0.81510417   0.77206103   0.76589735  1.2268371 
  0.765625     0.77173706   0.76561981  1.3061224 
  0.72916667   0.7714592    0.76534545  1.3714286 
  0.703125     0.77115722   0.76507434  1.4222222 
  0.75260417   0.7708731    0.76480654  1.3287197 
  0.80729167   0.77060163   0.76454212  1.2387097 
  0.79947917   0.77034083   0.76428114  1.2508143 
  0.75         0.77009      0.76402367  1.3333333 
  0.77083333   0.76984896   0.76376977  1.2972973 
  0.7734375    0.76964804   0.76351951  1.2929293 
  0.80729167   0.76945406   0.76327294  1.2387097 
  0.73958333   0.76932914   0.76303013  1.3521127 
  0.63802083   0.7691297    0.76279114  1.5673469 
  0.83333333   0.76894157   0.76255603  1.2       
  0.75         0.7687654    0.76232486  1.3333333 
  0.72135417   0.76860204   0.76209769  1.3862816 
  0.76822917   0.76845254   0.76187456  1.3016949 
  0.73177083   0.76831816   0.76165555  1.366548  
  0.69010417   0.7682005    0.76144071  1.4490566 
  0.765625     0.76814439   0.76123009  1.3061224 
  0.67708333   0.76806706   0.76102375  1.4769231 
  0.72395833   0.76811033   0.76082174  1.381295  
  0.71614583   0.76818502   0.76062411  1.3963636 
  0.73697917   0.76830923   0.76043092  1.3568905 
  0.76041667   0.76841029   0.76024221  1.3150685 
  0.734375     0.76865556   0.76005804  1.3617021 
  0.7890625    0.76917101   0.75987846  1.2673267 
  0.74739583   0.77016131   0.75970351  1.3379791 
  0.77083333   0.7718438    0.75953324  1.2972973 
  0.7734375    0.77427652   0.7593677   1.2929293 
  0.77604167   0.77729699   0.75920693  1.2885906 
  0.7890625    0.78005674   0.75905098  1.2673267 
  0.8046875    0.78150958   0.75889989  1.2427184 
  0.6953125    0.78117864   0.75875371  1.4382022 
  0.64322917   0.77978392   0.75861247  1.5546559 
  0.72135417   0.77854978   0.75847621  1.3862816 
  0.76302083   0.77832256   0.75834498  1.3105802 
  0.69010417   0.77943461   0.75821882  1.4490566 
  0.84895833   0.78193456   0.75809775  1.1779141 
  0.7265625    0.78609341   0.75798182  1.3763441 
  0.79947917   0.79313059   0.75787107  1.2508143 
  0.8203125    0.80523308   0.75776552  1.2190476 
  0.75260417   0.82399787   0.75766522  1.3287197 
  0.88020833   0.84836962   0.75757018  1.1360947 
  0.92447917   0.87324026   0.75748045  1.0816901 
  0.84895833   0.88965409   0.75739606  1.1779141 
  0.8125       0.89023115   0.75731702  1.2307692 
  0.79427083   0.87857037   0.75724338  1.2590164 
  0.87239583   0.86682524   0.75717515  1.1462687 
  0.82552083   0.86679012   0.75711237  1.2113565 
  0.81770833   0.88679985   0.75705505  1.2229299 
  0.83854167   0.93060836   0.75700322  1.1925466 
  0.98177083   0.99539513   0.75695691  1.0185676 
  0.88802083   1.07090845   0.75691612  1.1260997 
  1.07291667   1.14012191   0.7568809   0.9320388 
  1.09114583   1.17780504   0.75685124  0.9164678 
  1.078125     1.16302953   0.75682717  0.9275362 
  1.03385417   1.10707351   0.75680871  0.9672544 
  0.97395833   1.04453644   0.75679587  1.026738  
  0.90885417   1.00273414   0.75678867  1.1002865 
  0.94270833   0.9902116    0.75678711  1.0607735 
  0.875        0.99702042   0.75679122  1.1428571 
  0.9453125    1.00064495   0.75680099  1.0578512 
  0.84895833   0.98160742   0.75681644  1.1779141 
  0.77083333   0.94104839   0.75683759  1.2972973 
  0.78645833   0.8940315    0.75686442  1.2715232 
  0.84375      0.85332288   0.75689696  1.1851852 
  0.86458333   0.82448051   0.75693521  1.1566265 
  0.71875      0.80682236   0.75697916  1.3913043 
  0.75520833   0.79641087   0.75702883  1.3241379 
  0.734375     0.78949622   0.7570842   1.3617021 
  0.75520833   0.78426103   0.75714529  1.3241379 
  0.7265625    0.78020991   0.75721209  1.3763441 
  0.77604167   0.77718921   0.7572846   1.2885906 
  0.69010417   0.77511483   0.75736282  1.4490566 
  0.765625     0.77378825   0.75744673  1.3061224 
  0.75260417   0.77297731   0.75753634  1.3287197 
  0.7109375    0.772491     0.75763164  1.4065934 
  0.7421875    0.77220712   0.75773261  1.3473684 
  0.72135417   0.77205922   0.75783925  1.3862816 
  0.77083333   0.77202415   0.75795155  1.2972973 
  0.765625     0.77206338   0.7580695   1.3061224 
  0.7578125    0.77217691   0.75819308  1.3195876 
  0.7578125    0.77235815   0.75832228  1.3195876 
  0.75         0.77260282   0.75845708  1.3333333 
  0.72135417   0.77290845   0.75859746  1.3862816 
  0.79947917   0.77327397   0.75874342  1.2508143 
  0.7890625    0.77369965   0.75889493  1.2673267 
  0.68229167   0.77418714   0.75905196  1.4656489 
  0.76041667   0.77473932   0.75921451  1.3150685 
  0.77083333   0.7753605    0.75938253  1.2972973 
  0.68489583   0.77605675   0.75955603  1.460076  
  0.84635417   0.77683623   0.75973496  1.1815385 
  0.71614583   0.77770974   0.7599193   1.3963636 
  0.70833333   0.77869205   0.76010902  1.4117647 
  0.70572917   0.77980523   0.7603041   1.4169742 
  0.69270833   0.78108789   0.76050451  1.443609  
  0.828125     0.78262121   0.76071022  1.2075472 
  0.71614583   0.78459158   0.76092119  1.3963636 
  0.69010417   0.78740446   0.7611374   1.4490566 
  0.84375      0.79181921   0.76135881  1.1851852 
  0.81770833   0.79896317   0.76158538  1.2229299 
  0.734375     0.81000306   0.76181708  1.3617021 
  0.73177083   0.82535732   0.76205387  1.366548  
  0.75260417   0.84369597   0.76229572  1.3287197 
  0.80729167   0.86125295   0.76254258  1.2387097 
  0.85677083   0.8722885    0.76279442  1.1671733 
  0.81510417   0.87303037   0.7630512   1.2268371 
  0.79427083   0.86642674   0.76331287  1.2590164 
  0.81510417   0.85925618   0.76357939  1.2268371 
  0.84895833   0.85676351   0.76385071  1.1779141 
  0.8046875    0.86102792   0.7641268   1.2427184 
  0.86197917   0.87143013   0.76440761  1.1601208 
  0.8203125    0.8865333    0.76469308  1.2190476 
  0.9296875    0.90794612   0.76498317  1.0756303 
  0.91145833   0.94443637   0.76527783  1.0971429 
  1.078125     1.01032719   0.76557702  0.9275362 
  1.09635417   1.11847825   0.76588068  0.912114  
  1.22916667   1.27208744   0.76618876  0.8135593 
  1.49739583   1.45811147   0.76650121  0.6678261 
  1.73697917   1.64581385   0.76681797  0.5757121 
  1.94791667   1.80063961   0.76713899  0.513369  
  2.09895833   1.92461115   0.76746422  0.4764268 
  2.1640625    2.06457739   0.7677936   0.4620939 
  2.25260417   2.25140551   0.76812707  0.4439306 
  2.44791667   2.45185662   0.76846457  0.4085106 
  2.67708333   2.57775685   0.76880606  0.3735409 
  2.69791667   2.57104667   0.76915146  0.3706564 
  2.54166667   2.47620085   0.76950071  0.3934426 
  2.5390625    2.38394184   0.76985377  0.3938462 
  2.38020833   2.3604191    0.77021056  0.4201313 
  2.33072917   2.40326759   0.77057102  0.4290503 
  2.21354167   2.43271293   0.7709351   0.4517647 
  2.20572917   2.35180063   0.77130272  0.4533648 
  2.17708333   2.14146698   0.77167382  0.4593301 
  1.95833333   1.87440321   0.77204834  0.5106383 
  1.61458333   1.63891432   0.77242622  0.6193548 
  1.61197917   1.48110525   0.77280737  0.6203554 
  1.33333333   1.39600475   0.77319175  0.75      
  1.265625     1.34158899   0.77357928  0.7901235 
  1.15885417   1.27295324   0.77396989  0.8629213 
  1.1328125    1.17977253   0.77436351  0.8827586 
  1.03385417   1.08009806   0.77476008  0.9672544 
  0.97916667   0.99302525   0.77515952  1.0212766 
  0.92708333   0.92820961   0.77556177  1.0786517 
  0.82291667   0.88600387   0.77596675  1.2151899 
  0.7734375    0.86118646   0.77637439  1.2929293 
  0.765625     0.84736825   0.77678461  1.3061224 
  0.81510417   0.83959895   0.77719736  1.2268371 
  0.79947917   0.83494446   0.77761255  1.2508143 
  0.78125      0.83196127   0.77803011  1.28      
  0.76302083   0.83001128   0.77844997  1.3105802 
  0.79427083   0.82881493   0.77887204  1.2590164 
  0.7734375    0.82823532   0.77929627  1.2929293 
  0.81770833   0.82820006   0.77972257  1.2229299 
  0.74739583   0.82866842   0.78015086  1.3379791 
  0.8046875    0.82962303   0.78058108  1.2427184 
  0.84635417   0.83106671   0.78101314  1.1815385 
  0.8515625    0.8330216    0.78144697  1.1743119 
  0.7734375    0.83552915   0.78188249  1.2929293 
  0.85416667   0.83865243   0.78231962  1.1707317 
  0.8671875    0.84248433   0.7827583   1.1531532 
  0.82552083   0.84714984   0.78319843  1.2113565 
  0.76302083   0.85282002   0.78363995  1.3105802 
  0.74739583   0.8597271    0.78408277  1.3379791 
  0.81770833   0.86820103   0.78452681  1.2229299 
  0.78645833   0.87872799   0.78497201  1.2715232 
  0.89322917   0.8921408    0.78541827  1.1195335 
  0.90364583   0.91017557   0.78586553  1.1066282 
  0.984375     0.93690991   0.7863137   1.015873  
  1.0234375    0.98196162   0.7867627   0.9770992 
  1.1015625    1.06572462   0.78721245  0.9078014 
  1.16927083   1.22459718   0.78766288  0.8552339 
  1.390625     1.50915166   0.78811391  0.7191011 
  1.90364583   1.96639579   0.78856546  0.5253078 
  2.51041667   2.60400401   0.78901744  0.3983402 
  3.27604167   3.3491866    0.78946978  0.3052464 
  4.47916667   4.02239582   0.7899224   0.2232558 
  5.3046875    4.36662498   0.79037523  0.1885125 
  5.48958333   4.22731455   0.79082817  0.1821632 
  4.1484375    3.74209659   0.79128116  0.2410546 
  2.94791667   3.2020916    0.79173412  0.3392226 
  2.296875     2.82712528   0.79218696  0.4353741 
  2.3359375    2.69222588   0.7926396   0.4280936 
  2.7734375    2.73206969   0.79309198  0.3605634 
  2.9609375    2.78087521   0.793544    0.3377309 
  3.15625      2.67182671   0.7939956   0.3168317 
  2.6328125    2.37444412   0.79444669  0.379822  
  2.03385417   1.9878234    0.7948972   0.4916773 
  1.453125     1.61994574   0.79534705  0.688172  
  1.1328125    1.33217037   0.79579616  0.8827586 
  1.03385417   1.13909645   0.79624446  0.9672544 
  0.9296875    1.02479306   0.79669186  1.0756303 
  0.8671875    0.9629544    0.7971383   1.1531532 
  0.89583333   0.93107694   0.79758369  1.1162791 
  0.86458333   0.91547012   0.79802796  1.1566265 
  0.88802083   0.910548     0.79847104  1.1260997 
  0.88802083   0.91675555   0.79891284  1.1260997 
  0.90104167   0.93881391   0.7993533   1.1098266 
  0.96614583   0.98346706   0.79979235  1.0350404 
  1.03385417   1.05539621   0.80022989  0.9672544 
  1.12760417   1.15132316   0.80066587  0.886836  
  1.1171875    1.25476954   0.80110022  0.8951049 
  1.22916667   1.33442053   0.80153284  0.8135593 
  1.1875       1.35490213   0.80196369  0.8421053 
  1.16666667   1.30901389   0.80239268  0.8571429 
  1.23697917   1.2292078    0.80281974  0.8084211 
  1.17708333   1.15553412   0.8032448   0.8495575 
  1.16927083   1.11206874   0.80366779  0.8552339 
  1.140625     1.10217274   0.80408865  0.8767123 
  1.10416667   1.11079237   0.8045073   0.9056604 
  1.1171875    1.11220516   0.80492368  0.8951049 
  1.03385417   1.08696893   0.80533771  0.9672544 
  1.0390625    1.03784421   0.80574933  0.962406  
  0.9921875    0.9809747    0.80615848  1.007874  
  0.91927083   0.93007976   0.80656508  1.0878187 
  0.85416667   0.8918316    0.80696907  1.1707317 
  0.82291667   0.86682824   0.8073704   1.2151899 
  0.79947917   0.85213502   0.80776898  1.2508143 
  0.79427083   0.84398918   0.80816477  1.2590164 
  0.86197917   0.83941803   0.80855769  1.1601208 
  0.7734375    0.83662948   0.80894768  1.2929293 
  0.84375      0.83472525   0.8093347   1.1851852 
  0.77864583   0.83330503   0.80971866  1.2842809 
  0.75520833   0.83219437   0.81009952  1.3241379 
  0.71354167   0.83130801   0.81047721  1.4014599 
  0.8203125    0.83059603   0.81085168  1.2190476 
  0.76302083   0.83002439   0.81122287  1.3105802 
  0.79166667   0.82956828   0.81159072  1.2631579 
  0.7578125    0.82920857   0.81195518  1.3195876 
  0.74479167   0.82893043   0.81231619  1.3426573 
  0.78385417   0.82872261   0.81267369  1.2757475 
  0.71875      0.82857624   0.81302764  1.3913043 
  0.79427083   0.82848455   0.81337799  1.2590164 
  0.6796875    0.82844266   0.81372467  1.4712644 
  0.75260417   0.82844754   0.81406764  1.3287197 
  0.6953125    0.82849817   0.81440684  1.4382022 
  0.6953125    0.82859705   0.81474224  1.4382022 
  0.79947917   0.82875451   0.81507378  1.2508143 
  0.7890625    0.82899985   0.81540141  1.2673267 
  0.77864583   0.82940368   0.81572509  1.2842809 
  0.74479167   0.83011224   0.81604477  1.3426573 
  0.7578125    0.83137442   0.81636041  1.3195876 
  0.69270833   0.83351847   0.81667196  1.443609  
  0.80729167   0.83682246   0.81697939  1.2387097 
  0.83854167   0.8412828    0.81728264  1.1925466 
  0.8125       0.84637317   0.81758168  1.2307692 
  0.82291667   0.8508959    0.81787647  1.2151899 
  0.77604167   0.85319367   0.81816697  1.2885906 
  0.77864583   0.85232426   0.81845314  1.2842809 
  0.88802083   0.84923045   0.81873495  1.1260997 
  0.93229167   0.84578454   0.81901235  1.0726257 
  0.88020833   0.84339746   0.81928532  1.1360947 
  0.984375     0.84259552   0.81955382  1.015873  
  0.84895833   0.84302925   0.81981781  1.1779141 
  0.95572917   0.84369453   0.82007727  1.0463215 
  0.90364583   0.84345439   0.82033216  1.1066282 
  0.7890625    0.84191996   0.82058245  1.2673267 
  0.88802083   0.83963771   0.82082812  1.1260997 
  0.92708333   0.83734087   0.82106913  1.0786517 
  0.85416667   0.83549761   0.82130547  1.1707317 
  0.9140625    0.83427177   0.8215371   1.0940171 
  0.8671875    0.83360391   0.82176399  1.1531532 
  0.85416667   0.83333522   0.82198613  1.1707317 
  0.90104167   0.83330914   0.8222035   1.1098266 
  0.921875     0.83341903   0.82241606  1.0847458 
  0.89583333   0.83361181   0.8226238   1.1162791 
  0.89583333   0.83387858   0.8228267   1.1162791 
  0.81770833   0.83425397   0.82302474  1.2229299 
  0.90885417   0.83483004   0.8232179   1.1002865 
  0.78385417   0.83577403   0.82340617  1.2757475 
  1.13541667   0.8373175    0.82358953  0.8807339 
  0.98177083   0.83967976   0.82376797  1.0185676 
  1.02864583   0.8429108    0.82394147  0.9721519 
  1.05729167   0.84671158   0.82411001  0.9458128 
  1.02083333   0.85031496   0.8242736   0.9795918 
  1.078125     0.85254464   0.82443221  0.9275362 
  1.02083333   0.85249155   0.82458584  0.9795918 
  1.04947917   0.85052976   0.82473448  0.9528536 
  0.94791667   0.84797356   0.82487813  1.0549451 
  0.8984375    0.84598492   0.82501677  1.1130435 
  0.8984375    0.84512069   0.8251504   1.1130435 
  0.87760417   0.84529301   0.82527901  1.1394659 
  0.93229167   0.845885     0.82540261  1.0726257 
  0.890625     0.84603631   0.82552119  1.122807  
  0.84895833   0.84525043   0.82563475  1.1779141 
  0.78645833   0.84373839   0.82574329  1.2715232 
  0.75520833   0.84202367   0.82584681  1.3241379 
  0.78385417   0.84054542   0.82594531  1.2757475 
  0.8359375    0.83949548   0.82603879  1.1962617 
  0.83072917   0.83887935   0.82612726  1.2037618 
  0.7109375    0.83859723   0.82621073  1.4065934 
  0.77604167   0.8385273    0.82628919  1.2885906 
  0.7421875    0.838574     0.82636266  1.3473684 
  0.83333333   0.83868765   0.82643114  1.2       
  0.78645833   0.83883269   0.82649464  1.2715232 
  0.75260417   0.83898422   0.82655318  1.3287197 
  0.76822917   0.83914647   0.82660675  1.3016949 
  0.73958333   0.83931675   0.82665538  1.3521127 
  0.83854167   0.83936509   0.82669907  1.1925466 
  0.80208333   0.83955251   0.82673784  1.2467532 
  0.91666667   0.83974083   0.8267717   1.0909091 
  0.8515625    0.83993392   0.82680067  1.1743119 
  0.75260417   0.84013155   0.82682476  1.3287197 
  0.83072917   0.84033364   0.82684399  1.2037618 
  0.859375     0.84047951   0.82685838  1.1636364 
  0.7890625    0.84069078   0.82686795  1.2673267 
  0.70833333   0.84082717   0.82687271  1.4117647 
  0.8671875    0.84104819   0.82687269  1.1531532 
  0.77864583   0.84127497   0.82686791  1.2842809 
  0.8125       0.84150765   0.82685839  1.2307692 
  0.72916667   0.84174457   0.82684415  1.3714286 
  0.84375      0.84198743   0.82682522  1.1851852 
  0.7734375    0.84223662   0.82680162  1.2929293 
  0.7265625    0.84245478   0.82677338  1.3763441 
  0.86458333   0.84271813   0.82674052  1.1566265 
  0.80989583   0.84298922   0.82670306  1.2347267 
  0.7265625    0.84326854   0.82666105  1.3763441 
  0.828125     0.84355673   0.8266145   1.2075472 
  0.72135417   0.84385442   0.82656345  1.3862816 
  0.78125      0.84416226   0.82650792  1.28      
  0.76822917   0.84448097   0.82644795  1.3016949 
  0.7734375    0.84481138   0.82638356  1.2929293 
  0.83072917   0.84515428   0.8263148   1.2037618 
  0.7578125    0.84551053   0.82624168  1.3195876 
  0.890625     0.84588116   0.82616425  1.122807  
  0.8515625    0.84626718   0.82608254  1.1743119 
  0.78385417   0.84666968   0.82599659  1.2757475 
  0.87760417   0.84708985   0.82590642  1.1394659 
  0.828125     0.84752897   0.82581208  1.2075472 
  0.83333333   0.84798845   0.8257136   1.2       
  0.77864583   0.84846971   0.82561103  1.2842809 
  0.83333333   0.84897437   0.82550438  1.2       
  0.77604167   0.84950423   0.82539372  1.2885906 
  0.7578125    0.85006109   0.82527907  1.3195876 
  0.8203125    0.85064694   0.82516047  1.2190476 
  0.79166667   0.85126406   0.82503797  1.2631579 
  0.859375     0.85191483   0.8249116   1.1636364 
  0.76822917   0.85260179   0.82478141  1.3016949 
  0.81510417   0.8533278    0.82464743  1.2268371 
  0.71354167   0.85409599   0.82450972  1.4014599 
  0.86458333   0.85490983   0.8243683   1.1566265 
  0.79166667   0.85577272   0.82422324  1.2631579 
  0.74479167   0.85668893   0.82407456  1.3426573 
  0.8125       0.85766293   0.82392231  1.2307692 
  0.734375     0.85869962   0.82376653  1.3617021 
  0.73697917   0.85980444   0.82360728  1.3568905 
  0.79947917   0.86098347   0.8234446   1.2508143 
  0.80729167   0.86224347   0.82327852  1.2387097 
  0.8515625    0.8635918    0.8231091   1.1743119 
  0.78125      0.86503687   0.82293639  1.28      
  0.90625      0.86658817   0.82276042  1.1034483 
  0.78645833   0.86825605   0.82258125  1.2715232 
  0.7890625    0.87005261   0.82239892  1.2673267 
  0.72916667   0.87199085   0.82221348  1.3714286 
  0.86197917   0.87408635   0.82202497  1.1601208 
  0.7734375    0.8763563    0.82183345  1.2929293 
  0.84375      0.87882069   0.82163897  1.1851852 
  0.83854167   0.88150271   0.82144156  1.1925466 
  0.83333333   0.88442869   0.82124128  1.2       
  0.81770833   0.88762904   0.82103818  1.2229299 
  0.78385417   0.89114046   0.82083231  1.2757475 
  0.91666667   0.89500523   0.82062371  1.0909091 
  0.84114583   0.89927319   0.82041243  1.1888545 
  0.84895833   0.90400327   0.82019853  1.1779141 
  0.81770833   0.90926825   0.81998204  1.2229299 
  0.7890625    0.91515453   0.81976303  1.2673267 
  0.89322917   0.92176726   0.81954154  1.1195335 
  0.84114583   0.92923668   0.81931762  1.1888545 
  0.88541667   0.93772617   0.81909131  1.1294118 
  0.90104167   0.94743902   0.81886267  1.1098266 
  0.88802083   0.95863407   0.81863175  1.1260997 
  0.98697917   0.97165281   0.8183986   1.0131926 
  0.890625     0.98694881   0.81816326  1.122807  
  0.9921875    1.00517321   0.81792579  1.007874  
  1.03125      1.02739359   0.81768623  0.969697  
  1.07291667   1.05568262   0.81744464  0.9320388 
  1.16927083   1.09457292   0.81720106  0.8552339 
  1.16666667   1.1541434    0.81695554  0.8571429 
  1.29166667   1.25521827   0.81670813  0.7741935 
  1.41145833   1.43506708   0.81645889  0.7084871 
  1.69270833   1.74864873   0.81620785  0.5907692 
  2.03385417   2.25677253   0.81595506  0.4916773 
  2.88020833   2.99661162   0.81570059  0.3471971 
  3.90104167   3.9388148    0.81544446  0.2563418 
  5.29947917   4.95053571   0.81518674  0.1886978 
  7.25         5.7821624    0.81492746  0.137931  
  7.95052083   6.13418699   0.81466669  0.1257779 
  7.19010417   5.88710062   0.81440445  0.13908   
  5.1640625    5.25677971   0.81414081  0.193646  
  3.95052083   4.60346803   0.81387581  0.2531312 
  3.3828125    4.2151776    0.81360949  0.295612  
  3.64583333   4.23881942   0.8133419   0.2742857 
  4.3671875    4.67063112   0.81307308  0.2289803 
  6.09375      5.3654163    0.81280309  0.1641026 
  7.015625     6.07818578   0.81253197  0.142539  
  7.72395833   6.57827791   0.81225975  0.1294673 
  7.72916667   6.72755606   0.8119865   0.1293801 
  7.34375      6.44349484   0.81171224  0.1361702 
  6.51041667   5.77015122   0.81143703  0.1536    
  5.17447917   4.94607822   0.81116091  0.1932562 
  4.2734375    4.24995276   0.81088392  0.2340037 
  4.09375      3.87189284   0.8106061   0.2442748 
  4.61197917   3.90634271   0.8103275   0.2168267 
  5.40364583   4.3793776    0.81004816  0.1850602 
  6.42708333   5.27440812   0.80976812  0.1555916 
  8.09635417   6.5528146    0.80948741  0.1235124 
  9.4765625    8.1848953    0.80920609  0.1055235 
  10.36979167  10.10927691  0.80892418  0.096434  
  11.40625     12.07240259  0.80864174  0.0876712 
  12.109375    13.55504097  0.8083588   0.0825806 
  12.21354167  13.97862919  0.80807539  0.0818763 
  11.8125      13.13757628  0.80779155  0.0846561 
  10.82552083  11.44645653  0.80750733  0.0923743 
  10.1953125   9.6422031    0.80722276  0.0980843 
  9.2734375    8.31051268   0.80693787  0.1078349 
  9.10416667   7.69002654   0.80665271  0.1098398 
  8.37239583   7.66432666   0.8063673   0.1194401 
  7.97135417   7.84591318   0.80608168  0.1254492 
  7.6328125    7.76585691   0.80579588  0.1310133 
  6.94010417   7.14557848   0.80550995  0.1440901 
  5.77604167   6.05732147   0.8052239   0.1731289 
  4.7109375    4.793897     0.80493778  0.212272  
  4.1171875    3.62596532   0.80465161  0.2428843 
  3.19791667   2.70275913   0.80436542  0.3127036 
  2.83854167   2.05817969   0.80407926  0.3522936 
  2.0859375    1.65073496   0.80379314  0.4794007 
  1.953125     1.41005603   0.80350709  0.512     
  1.58854167   1.27066905   0.80322114  0.6295082 
  1.27864583   1.18649416   0.80293533  0.7820774 
  1.1484375    1.13079765   0.80264968  0.8707483 
  1.0625       1.09007649   0.8023642   0.9411765 
  1.02864583   1.05803265   0.80207894  0.9721519 
  1.0390625    1.03173392   0.80179392  0.962406  
  0.93489583   1.00961834   0.80150915  1.0696379 
  0.90364583   0.99077687   0.80122467  1.1066282 
  0.99739583   0.97456782   0.80094049  1.002611  
  0.9765625    0.96051085   0.80065664  1.024     
  0.91666667   0.94823947   0.80037314  1.0909091 
  0.7734375    0.9374658    0.80009001  1.2929293 
  0.77864583   0.92796051   0.79980728  1.2842809 
  0.953125     0.91953942   0.79952495  1.0491803 
  0.82552083   0.91206448   0.79924306  1.2113565 
  0.84375      0.90540103   0.79896161  1.1851852 
  0.78385417   0.89945967   0.79868063  1.2757475 
  0.80729167   0.89416296   0.79840014  1.2387097 
  0.76822917   0.88944963   0.79812014  1.3016949 
  0.82552083   0.88527098   0.79784065  1.2113565 
  0.81770833   0.88159125   0.79756169  1.2229299 
  0.82552083   0.87838596   0.79728328  1.2113565 
  0.83333333   0.87564265   0.79700542  1.2       
  0.84895833   0.87336033   0.79672813  1.1779141 
  0.8046875    0.87155172   0.79645142  1.2427184 
  0.8203125    0.8702475    0.79617529  1.2190476 
  0.83333333   0.86950064   0.79589977  1.2       
  0.8984375    0.86940235   0.79562487  1.1130435 
  0.87760417   0.87017891   0.79535058  1.1394659 
  0.90625      0.87213046   0.79507691  1.1034483 
  0.84895833   0.87601497   0.79480389  1.1779141 
  0.84895833   0.88365993   0.79453151  1.1779141 
  0.875        0.8986494    0.79425977  1.1428571 
  0.984375     0.92728896   0.79398869  1.015873  
  0.9921875    0.97874966   0.79371827  1.007874  
  1.02604167   1.06324935   0.79344851  0.9746193 
  1.08072917   1.18738047   0.79317941  0.9253012 
  1.25520833   1.3474044    0.79291099  0.7966805 
  1.46875      1.52317658   0.79264323  0.6808511 
  1.59635417   1.67515237   0.79237615  0.6264274 
  1.70052083   1.75236037   0.79210974  0.5880551 
  1.61197917   1.72453431   0.791844    0.6203554 
  1.51041667   1.61467107   0.79157893  0.662069  
  1.49739583   1.47897141   0.79131454  0.6678261 
  1.3046875    1.36716872   0.79105081  0.7664671 
  1.1875       1.30550876   0.79078775  0.8421053 
  1.2265625    1.2945973    0.79052535  0.8152866 
  1.2578125    1.31288669   0.79026361  0.7950311 
  1.1796875    1.32517997   0.79000253  0.8476821 
  1.30729167   1.30031254   0.78974209  0.7649402 
  1.24739583   1.23313121   0.7894823   0.8016701 
  1.08854167   1.14264349   0.78922315  0.9186603 
  0.96875      1.05138946   0.78896463  1.0322581 
  0.98958333   0.97425248   0.78870673  1.0105263 
  0.86458333   0.91721259   0.78844944  1.1566265 
  0.83333333   0.87935126   0.78819276  1.2       
  0.72395833   0.85614469   0.78793668  1.381295  
  0.74739583   0.84246045   0.78768118  1.3379791 
  0.7109375    0.83419091   0.78742626  1.4065934 
  0.79947917   0.82878263   0.78717191  1.2508143 
  0.765625     0.82485505   0.78691812  1.3061224 
  0.80208333   0.82174228   0.78666486  1.2467532 
  0.76302083   0.81913636   0.78641214  1.3105802 
  0.72395833   0.81688743   0.78615994  1.381295  
  0.7734375    0.81491168   0.78590824  1.2929293 
  0.7421875    0.81315448   0.78565703  1.3473684 
  0.84114583   0.81157632   0.7854063   1.1888545 
  0.78385417   0.81015688   0.78515603  1.2757475 
  0.80729167   0.80885336   0.7849062   1.2387097 
  0.66145833   0.80765707   0.78465681  1.511811  
  0.79166667   0.80655315   0.78440783  1.2631579 
  0.72395833   0.80552983   0.78415926  1.381295  
  0.73697917   0.80457766   0.78391106  1.3568905 
  0.75260417   0.80368893   0.78366323  1.3287197 
  0.7421875    0.80285749   0.78341575  1.3473684 
  0.68489583   0.80207853   0.7831686   1.460076  
  0.79947917   0.80134838   0.78292176  1.2508143 
  0.84635417   0.80066432   0.78267521  1.1815385 
  0.7890625    0.80002983   0.78242894  1.2673267 
  0.77083333   0.7994342    0.78218292  1.2972973 
  0.79166667   0.79888317   0.78193714  1.2631579 
  0.7109375    0.79837899   0.78169158  1.4065934 
  0.76302083   0.79792672   0.78144621  1.3105802 
  0.76041667   0.79753708   0.78120102  1.3150685 
  0.8359375    0.79723392   0.78095599  1.1962617 
  0.671875     0.79707134   0.78071109  1.4883721 
  0.77604167   0.79716492   0.7804663   1.2885906 
  0.90364583   0.79773671   0.78022161  1.1066282 
  0.73958333   0.79915569   0.77997699  1.3521127 
  0.8203125    0.80191398   0.77973242  1.2190476 
  0.71875      0.80650986   0.77948789  1.3913043 
  0.72916667   0.81317351   0.77924336  1.3714286 
  0.82552083   0.82153527   0.77899881  1.2113565 
  0.79427083   0.83036467   0.77875423  1.2590164 
  0.90885417   0.83748035   0.7785096   1.1002865 
  0.76041667   0.84031679   0.77826488  1.3150685 
  0.82291667   0.83777484   0.77802006  1.2151899 
  0.83072917   0.83152003   0.77777512  1.2037618 
  0.70052083   0.82452835   0.77753004  1.4275093 
  0.73177083   0.81924369   0.77728478  1.366548  
  0.74739583   0.81693122   0.77703934  1.3379791 
  0.8125       0.81764455   0.77679368  1.2307692 
  0.81770833   0.82042002   0.7765478   1.2229299 
  0.76302083   0.82372788   0.77630165  1.3105802 
  0.8203125    0.82637307   0.77605523  1.2190476 
  0.78385417   0.82857945   0.77580851  1.2757475 
  0.78125      0.83180448   0.77556146  1.28      
  0.77083333   0.83729361   0.77531408  1.2972973 
  0.79166667   0.8449222    0.77506633  1.2631579 
  0.71875      0.85277332   0.77481819  1.3913043 
  0.76302083   0.85751006   0.77456965  1.3105802 
  0.75         0.85623986   0.77432068  1.3333333 
  0.80729167   0.84910401   0.77407126  1.2387097 
  0.76302083   0.83909443   0.77382137  1.3105802 
  0.7421875    0.82957049   0.77357099  1.3473684 
  0.80989583   0.82283544   0.77332011  1.2347267 
  0.7265625    0.81969669   0.77306869  1.3763441 
  0.82291667   0.81940119   0.77281672  1.2151899 
  0.7578125    0.81997032   0.77256418  1.3195876 
  0.7890625    0.81902314   0.77231106  1.2673267 
  0.7734375    0.81522259   0.77205733  1.2929293 
  0.7578125    0.80909938   0.77180297  1.3195876 
  0.6875       0.80212096   0.77154798  1.4545455 
  0.84114583   0.79556855   0.77129232  1.1888545 
  0.73177083   0.79019004   0.77103598  1.366548  
  0.82552083   0.78621458   0.77077895  1.2113565 
  0.77083333   0.78349151   0.7705212   1.2972973 
  0.69270833   0.78169872   0.77026273  1.443609  
  0.796875     0.78050796   0.77000352  1.254902  
  0.734375     0.77966955   0.76974354  1.3617021 
  0.6875       0.77902653   0.76948279  1.4545455 
  0.72395833   0.77849217   0.76922126  1.381295  
  0.76041667   0.77802156   0.76895892  1.3150685 
  0.85416667   0.77759584   0.76869577  1.1707317 
  0.7265625    0.77720337   0.76843179  1.3763441 
  0.73177083   0.77683862   0.76816697  1.366548  
  0.71875      0.77649842   0.7679013   1.3913043 
  0.75         0.77618104   0.76763476  1.3333333 
  0.77083333   0.77588565   0.76736735  1.2972973 
  0.79166667   0.77561162   0.76709906  1.2631579 
  0.76041667   0.77536084   0.76682987  1.3150685 
  0.7265625    0.77513418   0.76655978  1.3763441 
  0.77604167   0.77493389   0.76628878  1.2885906 
  0.71875      0.77476139   0.76601686  1.3913043 
  0.8046875    0.77462332   0.76574402  1.2427184 
  0.7421875    0.77452702   0.76547024  1.3473684 
  0.71875      0.77447931   0.76519553  1.3913043 
  0.72916667   0.77449268   0.76491987  1.3714286 
  0.7421875    0.77458751   0.76464327  1.3473684 
  0.78125      0.77480217   0.76436572  1.28      
  0.796875     0.77521483   0.76408721  1.254902  
  0.77083333   0.77599478   0.76380775  1.2972973 
  0.68229167   0.77747734   0.76352733  1.4656489 
  0.68229167   0.78026185   0.76324596  1.4656489 
  0.8046875    0.78527486   0.76296362  1.2427184 
  0.77083333   0.79368844   0.76268033  1.2972973 
  0.72395833   0.80656696   0.76239608  1.381295  
  0.79166667   0.82424074   0.76211088  1.2631579 
  0.70833333   0.84560152   0.76182473  1.4117647 
  0.78125      0.86754707   0.76153764  1.28      
  0.73958333   0.88494772   0.7612496   1.3521127 
  0.83333333   0.89205777   0.76096062  1.2       
  0.796875     0.886518     0.76067071  1.254902  
  0.75520833   0.87194493   0.76037988  1.3241379 
  0.7890625    0.85497845   0.76008814  1.2673267 
  0.80208333   0.84126307   0.75979548  1.2467532 
  0.81510417   0.83387095   0.75950194  1.2268371 
  0.734375     0.83312514   0.7592075   1.3617021 
  0.77604167   0.83703615   0.75891219  1.2885906 
  0.7890625    0.84214609   0.75861601  1.2673267 
  0.76302083   0.84520367   0.75831898  1.3105802 
  0.78125      0.84543947   0.75802112  1.28      
  0.75         0.84479683   0.75772243  1.3333333 
  0.69791667   0.84563443   0.75742294  1.4328358 
  0.6953125    0.84881407   0.75712266  1.4382022 
  0.7578125    0.85324102   0.7568216   1.3195876 
  0.76041667   0.85687278   0.75651979  1.3150685 
  0.78125      0.85874683   0.75621724  1.28      
  0.8046875    0.85933581   0.75591398  1.2427184 
  0.72395833   0.85918403   0.75561002  1.381295  
  0.75260417   0.85888616   0.75530539  1.3287197 
  0.84635417   0.85993229   0.7550001   1.1815385 
  0.87239583   0.86360479   0.75469419  1.1462687 
  0.78385417   0.86915818   0.75438768  1.2757475 
  0.71875      0.87344736   0.75408058  1.3913043 
  0.75         0.8725987    0.75377294  1.3333333 
  0.8203125    0.86522072   0.75346477  1.2190476 
  0.80729167   0.85321971   0.7531561   1.2387097 
  0.8046875    0.83940177   0.75284696  1.2427184 
  0.79947917   0.82614514   0.75253739  1.2508143 
  0.8203125    0.81536559   0.7522274   1.2190476 
  0.78645833   0.80796152   0.75191704  1.2715232 
  0.703125     0.80335404   0.75160634  1.4222222 
  0.70572917   0.79979201   0.75129532  1.4169742 
  0.74479167   0.79535572   0.75098403  1.3426573 
  0.734375     0.78930173   0.75067249  1.3617021 
  0.69010417   0.78231539   0.75036075  1.4490566 
  0.68229167   0.7754719    0.75004883  1.4656489 
  0.73958333   0.76955759   0.74973679  1.3521127 
  0.828125     0.76493137   0.74942464  1.2075472 
  0.77083333   0.76159338   0.74911245  1.2972973 
  0.7421875    0.75930886   0.74880024  1.3473684 
  0.68489583   0.75776492   0.74848805  1.460076  
  0.6796875    0.75668207   0.74817593  1.4712644 
  0.71614583   0.75586708   0.74786392  1.3963636 
  0.74479167   0.75519921   0.74755206  1.3426573 
  0.71354167   0.75461535   0.7472404   1.4014599 
  0.77604167   0.75408526   0.74692898  1.2885906 
  0.7265625    0.75359329   0.74661785  1.3763441 
  0.68229167   0.75313092   0.74630705  1.4656489 
  0.796875     0.75269242   0.74599664  1.254902  
  0.74739583   0.75227471   0.74568665  1.3379791 
  0.72395833   0.75187461   0.74537713  1.381295  
  0.76822917   0.75148988   0.74506815  1.3016949 
  0.875        0.75111877   0.74475974  1.1428571 
  0.71614583   0.75075988   0.74445196  1.3963636 
  0.703125     0.75041208   0.74414485  1.4222222 
  0.75520833   0.75007446   0.74383848  1.3241379 
  0.79427083   0.7497463    0.74353289  1.2590164 
  0.71614583   0.74942703   0.74322814  1.3963636 
  0.78645833   0.7491088    0.74292428  1.2715232 
  0.71614583   0.74880606   0.74262137  1.3963636 
  0.71614583   0.74851252   0.74231946  1.3963636 
  0.734375     0.7482252    0.74201861  1.3617021 
  0.69010417   0.74794537   0.74171887  1.4490566 
  0.72916667   0.74767295   0.7414203   1.3714286 
  0.71354167   0.74739569   0.74112296  1.4014599 
  0.67708333   0.747135     0.74082691  1.4769231 
  0.67447917   0.74688498   0.7405322   1.4826255 
  0.70052083   0.74664259   0.7402389   1.4275093 
  0.66666667   0.74640799   0.73994707  1.5       
  0.66666667   0.74618135   0.73965676  1.5       
  0.77604167   0.74596294   0.73936803  1.2885906 
  0.69791667   0.74573903   0.73908096  1.4328358 
  0.71354167   0.745538     0.73879559  1.4014599 
  0.74479167   0.74534614   0.738512    1.3426573 
  0.75         0.74516391   0.73823024  1.3333333 
  0.64322917   0.74499601   0.73795037  1.5546559 
  0.70052083   0.74483469   0.73767247  1.4275093 
  0.64322917   0.74468422   0.73739659  1.5546559 
  0.72135417   0.74455344   0.73712279  1.3862816 
  0.6953125    0.7444256    0.73685115  1.4382022 
  0.73958333   0.74431268   0.73658172  1.3521127 
  0.65625      0.74421387   0.73631457  1.5238095 
  0.74739583   0.74413014   0.73604976  1.3379791 
  0.65625      0.74406254   0.73578737  1.5238095 
  0.67708333   0.74401549   0.73552745  1.4769231 
  0.71875      0.74398382   0.73527007  1.3913043 
  0.7109375    0.74397414   0.7350153   1.4065934 
  0.70052083   0.74398424   0.7347632   1.4275093 
  0.73697917   0.74401792   0.73451384  1.3568905 
  0.7265625    0.7440824    0.73426729  1.3763441 
  0.68489583   0.74416973   0.7340236   1.460076  
  0.7578125    0.74428761   0.73378285  1.3195876 
  0.66927083   0.74443918   0.7335451   1.4941634 
  0.75260417   0.7446278    0.73331042  1.3287197 
  0.75260417   0.744859     0.73307887  1.3287197 
  0.73958333   0.74513393   0.73285053  1.3521127 
  0.78645833   0.74545959   0.73262545  1.2715232 
  0.71614583   0.74584188   0.7324037   1.3963636 
  0.703125     0.74628773   0.73218535  1.4222222 
  0.796875     0.74680538   0.73197046  1.254902  
  0.70833333   0.74740451   0.73175911  1.4117647 
  0.69010417   0.7480964    0.73155134  1.4490566 
  0.7109375    0.74889438   0.73134724  1.4065934 
  0.78125      0.74981505   0.73114686  1.28      
  0.72395833   0.75087772   0.73095026  1.381295  
  0.70833333   0.75210596   0.73075752  1.4117647 
  0.76041667   0.75352898   0.7305687   1.3150685 
  0.7890625    0.75518277   0.73038386  1.2673267 
  0.765625     0.75711191   0.73020306  1.3061224 
  0.828125     0.75937229   0.73002636  1.2075472 
  0.61979167   0.76203729   0.72985384  1.6134454 
  0.75260417   0.76520207   0.72968554  1.3287197 
  0.78125      0.76900062   0.72952154  1.28      
  0.72395833   0.77364086   0.72936189  1.381295  
  0.8515625    0.77950528   0.72920665  1.1743119 
  0.75260417   0.78733665   0.72905589  1.3287197 
  0.8828125    0.79867532   0.72890966  1.1327434 
  0.765625     0.81666187   0.72876803  1.3061224 
  0.75260417   0.84706125   0.72863104  1.3287197 
  0.87239583   0.89921477   0.72849876  1.1462687 
  0.859375     0.98590519   0.72837125  1.1636364 
  1.06510417   1.12099664   0.72824856  0.9388753 
  1.1875       1.31381909   0.72813074  0.8421053 
  1.36197917   1.5615702    0.72801786  0.7342256 
  1.81770833   1.84216567   0.72790996  0.5501433 
  2.19010417   2.10979962   0.7278071   0.4565993 
  2.63802083   2.29787767   0.72770934  0.3790721 
  2.88020833   2.34401603   0.72761672  0.3471971 
  2.6484375    2.23904966   0.72752929  0.3775811 
  2.1875       2.04001854   0.72744711  0.4571429 
  1.640625     1.82553013   0.72737022  0.6095238 
  1.38020833   1.65664464   0.72729867  0.7245283 
  1.28385417   1.56419881   0.72723251  0.7789047 
  1.36458333   1.54826922   0.72717179  0.7328244 
  1.55729167   1.58200453   0.72711654  0.6421405 
  1.69270833   1.62010474   0.72706682  0.5907692 
  1.82552083   1.61586584   0.72702267  0.5477889 
  1.82291667   1.54863827   0.72698413  0.5485714 
  1.46875      1.4352106    0.72695124  0.6808511 
  1.26822917   1.30902182   0.72692404  0.788501  
  1.07291667   1.1982542    0.72690258  0.9320388 
  1.06770833   1.11839562   0.72688687  0.9365854 
  0.98958333   1.07199239   0.72687698  1.0105263 
  0.96875      1.05139063   0.72687292  1.0322581 
  1.01041667   1.04350237   0.72687474  0.9896907 
  0.97395833   1.03734731   0.72688246  1.026738  
  1.00260417   1.03014705   0.72689612  0.9974026 
  0.9765625    1.0247196    0.72691575  1.024     
  0.99739583   1.02292954   0.72694137  1.002611  
  0.84895833   1.02253351   0.72697303  1.1779141 
  0.88020833   1.01840053   0.72701073  1.1360947 
  0.94270833   1.00719925   0.72705451  1.0607735 
  0.890625     0.98979463   0.72710439  1.122807  
  0.93229167   0.96821884   0.72716039  1.0726257 
  0.91145833   0.94408693   0.72722254  1.0971429 
  0.953125     0.92018972   0.72729084  1.0491803 
  0.8125       0.89986835   0.72736533  1.2307692 
  0.78385417   0.88438471   0.72744602  1.2757475 
  0.75520833   0.87197584   0.72753292  1.3241379 
  0.75         0.85906976   0.72762604  1.3333333 
  0.8828125    0.84309492   0.7277254   1.1327434 
  0.90104167   0.82453058   0.72783102  1.1098266 
  0.95572917   0.80567114   0.72794288  1.0463215 
  0.90625      0.78864553   0.72806102  1.1034483 
  0.80729167   0.7747169    0.72818542  1.2387097 
  0.859375     0.7642655    0.7283161   1.1636364 
  0.79947917   0.75698354   0.72845306  1.2508143 
  0.8515625    0.75218544   0.72859629  1.1743119 
  0.8359375    0.74910752   0.72874581  1.1962617 
  0.734375     0.74711191   0.7289016   1.3617021 
  0.734375     0.74575589   0.72906366  1.3617021 
  0.85677083   0.74477332   0.72923199  1.1671733 
  0.765625     0.74401885   0.72940658  1.3061224 
  0.77864583   0.7434173    0.72958742  1.2842809 
  0.71614583   0.74292942   0.7297745   1.3963636 
  0.69791667   0.7425327    0.72996781  1.4328358 
  0.72916667   0.7422128    0.73016733  1.3714286 
  0.72916667   0.7419595    0.73037305  1.3714286 
  0.79166667   0.74176525   0.73058496  1.2631579 
  0.79166667   0.74162457   0.73080302  1.2631579 
  0.74479167   0.74153436   0.73102723  1.3426573 
  0.765625     0.74149476   0.73125755  1.3061224 
  0.7421875    0.74151131   0.73149397  1.3473684 
  0.84375      0.74159835   0.73173646  1.1851852 
  0.71875      0.74178254   0.73198499  1.3913043 
  0.75         0.74210423   0.73223954  1.3333333 
  0.796875     0.74261239   0.73250006  1.254902  
  0.828125     0.7433503    0.73276653  1.2075472 
  0.73697917   0.74433065   0.73303891  1.3568905 
  0.79427083   0.74550859   0.73331717  1.2590164 
  0.65104167   0.74676139   0.73360127  1.536     
  0.71875      0.74788131   0.73389116  1.3913043 
  0.85416667   0.74861476   0.73418681  1.1707317 
  0.75520833   0.74879923   0.73448817  1.3241379 
  0.77083333   0.74851093   0.7347952   1.2972973 
  0.69010417   0.74801807   0.73510785  1.4490566 
  0.69791667   0.74761816   0.73542607  1.4328358 
  0.75260417   0.74754573   0.73574981  1.3287197 
  0.80989583   0.74795722   0.73607902  1.2347267 
  0.78645833   0.74893721   0.73641365  1.2715232 
  0.74739583   0.7505048    0.73675363  1.3379791 
  0.74479167   0.75260974   0.73709891  1.3426573 
  0.78645833   0.75513937   0.73744944  1.2715232 
  0.6796875    0.75793503   0.73780514  1.4712644 
  0.77604167   0.76075197   0.73816597  1.2885906 
  0.67708333   0.76316064   0.73853184  1.4769231 
  0.7109375    0.76455461   0.73890271  1.4065934 
  0.71875      0.76447516   0.7392785   1.3913043 
  0.73697917   0.76305988   0.73965913  1.3568905 
  0.79166667   0.76098318   0.74004455  1.2631579 
  0.6953125    0.75899317   0.74043467  1.4382022 
  0.72135417   0.75761985   0.74082943  1.3862816 
  0.69270833   0.75709746   0.74122875  1.443609  
  0.76302083   0.75737106   0.74163254  1.3105802 
  0.73177083   0.75813468   0.74204074  1.366548  
  0.75         0.75891463   0.74245325  1.3333333 
  0.69270833   0.75923365   0.74287001  1.443609  
  0.7421875    0.75887428   0.74329092  1.3473684 
  0.77083333   0.75798499   0.74371589  1.2972973 
  0.72135417   0.75688454   0.74414486  1.3862816 
  0.7734375    0.75585429   0.74457771  1.2929293 
  0.7578125    0.75506815   0.74501437  1.3195876 
  0.6953125    0.7545951    0.74545474  1.4382022 
  0.66666667   0.75442234   0.74589874  1.5       
  0.74479167   0.75449074   0.74634626  1.3426573 
  0.69010417   0.75472942   0.74679722  1.4490566 
  0.7265625    0.75507719   0.74725151  1.3763441 
  0.77083333   0.7554909    0.74770903  1.2972973 
  0.63541667   0.75594421   0.7481697   1.5737705 
  0.65885417   0.75642278   0.74863341  1.5177866 
  0.67447917   0.75691931   0.74910005  1.4826255 
  0.70052083   0.75743013   0.74956952  1.4275093 
  0.77083333   0.7579533    0.75004173  1.2972973 
  0.71875      0.75848768   0.75051655  1.3913043 
  0.74739583   0.75903253   0.7509939   1.3379791 
  0.73697917   0.75958729   0.75147365  1.3568905 
  0.74479167   0.76015155   0.75195571  1.3426573 
  0.71875      0.76072504   0.75243996  1.3913043 
  0.67447917   0.76130752   0.75292628  1.4826255 
  0.71614583   0.76189883   0.75341458  1.3963636 
  0.7578125    0.76249891   0.75390473  1.3195876 
  0.734375     0.7631075    0.75439663  1.3617021 
  0.71614583   0.76372498   0.75489015  1.3963636 
  0.703125     0.76435119   0.75538518  1.4222222 
  0.72916667   0.76498622   0.75588161  1.3714286 
  0.71614583   0.76563018   0.75637932  1.3963636 
  0.70052083   0.76628319   0.75687819  1.4275093 
  0.71614583   0.76694548   0.75737811  1.3963636 
  0.6875       0.76761724   0.75787894  1.4545455 
  0.65104167   0.76829865   0.75838058  1.536     
  0.7109375    0.76899017   0.75888291  1.4065934 
  0.72916667   0.76969206   0.75938579  1.3714286 
  0.671875     0.77040473   0.75988912  1.4883721 
  0.82552083   0.77112859   0.76039276  1.2113565 
  0.703125     0.77186414   0.76089659  1.4222222 
  0.83072917   0.77261192   0.7614005   1.2037618 
  0.79166667   0.77337258   0.76190436  1.2631579 
  0.77604167   0.77414676   0.76240804  1.2885906 
  0.7421875    0.77493528   0.76291142  1.3473684 
  0.671875     0.77573896   0.76341438  1.4883721 
  0.74739583   0.77655878   0.76391678  1.3379791 
  0.7890625    0.77739579   0.76441852  1.2673267 
  0.71614583   0.77825122   0.76491945  1.3963636 
  0.69270833   0.77912643   0.76541946  1.443609  
  0.74479167   0.78002287   0.76591843  1.3426573 
  0.78385417   0.78094229   0.76641621  1.2757475 
  0.81510417   0.78188658   0.7669127   1.2268371 
  0.7421875    0.78285795   0.76740776  1.3473684 
  0.6640625    0.78385879   0.76790127  1.5058824 
  0.65364583   0.78489191   0.76839311  1.5298805 
  0.70833333   0.78596058   0.76888315  1.4117647 
  0.80208333   0.78706835   0.76937126  1.2467532 
  0.72916667   0.78821945   0.76985733  1.3714286 
  0.6796875    0.7894187    0.77034122  1.4712644 
  0.74479167   0.79067182   0.77082282  1.3426573 
  0.734375     0.79198525   0.771302    1.3617021 
  0.671875     0.79336683   0.77177864  1.4883721 
  0.78385417   0.79482553   0.77225261  1.2757475 
  0.79166667   0.79637232   0.7727238   1.2631579 
  0.734375     0.79802008   0.77319208  1.3617021 
  0.71614583   0.79978441   0.77365734  1.3963636 
  0.734375     0.80168466   0.77411945  1.3617021 
  0.73958333   0.80374408   0.7745783   1.3521127 
  0.8125       0.80599229   0.77503376  1.2307692 
  0.80729167   0.80846671   0.77548573  1.2387097 
  0.7734375    0.8112189    0.77593408  1.2929293 
  0.78645833   0.81432382   0.77637869  1.2715232 
  0.80989583   0.81790688   0.77681946  1.2347267 
  0.77604167   0.82220383   0.77725627  1.2885906 
  0.84635417   0.82767899   0.77768901  1.1815385 
  0.78645833   0.8352448    0.77811757  1.2715232 
  0.81770833   0.8465817    0.77854183  1.2229299 
  0.8359375    0.86450911   0.77896169  1.1962617 
  0.81770833   0.8931613    0.77937703  1.2229299 
  0.9140625    0.93765938   0.77978777  1.0940171 
  0.92708333   1.00287764   0.78019378  1.0786517 
  1.0078125    1.09136806   0.78059496  0.9922481 
  1.09375      1.20067536   0.78099122  0.9142857 
  1.15885417   1.32113815   0.78138245  0.8629213 
  1.25520833   1.4348015    0.78176855  0.7966805 
  1.52864583   1.51647977   0.78214943  0.6541738 
  1.54427083   1.542512     0.78252498  0.6475548 
  1.55989583   1.5076676    0.78289512  0.6410684 
  1.33333333   1.43123244   0.78325976  0.75      
  1.15885417   1.3427381    0.78361879  0.8629213 
  1.02604167   1.26725982   0.78397213  0.9746193 
  1.04166667   1.21985844   0.7843197   0.96      
  1.11197917   1.20478659   0.78466141  0.8992974 
  1.07552083   1.21618497   0.78499717  0.9297821 
  1.06770833   1.24010822   0.78532691  0.9365854 
  1.26302083   1.25817814   0.78565054  0.7917526 
  1.265625     1.25486392   0.78596798  0.7901235 
  1.22916667   1.22648312   0.78627917  0.8135593 
  1.203125     1.1816399    0.78658403  0.8311688 
  1.00260417   1.13289862   0.78688248  0.9974026 
  1.00260417   1.09077578   0.78717445  0.9974026 
  0.94010417   1.06243414   0.78745989  1.0637119 
  0.96614583   1.05269747   0.78773872  1.0350404 
  1.0390625    1.06619938   0.78801089  0.962406  
  1.08333333   1.1105734    0.78827633  0.9230769 
  1.203125     1.19992466   0.78853499  0.8311688 
  1.23958333   1.35695386   0.7887868   0.8067227 
  1.48697917   1.61176158   0.78903173  0.6725044 
  1.953125     1.99553835   0.78926971  0.512     
  2.47395833   2.52767273   0.78950071  0.4042105 
  3.00260417   3.19973564   0.78972467  0.3330442 
  3.9140625    3.96078282   0.78994155  0.255489  
  4.58333333   4.7081457    0.79015131  0.2181818 
  5.40104167   5.29019034   0.79035393  0.1851495 
  5.6171875    5.54687023   0.79054935  0.178025  
  5.453125     5.40651676   0.79073755  0.1833811 
  5.00520833   4.95265843   0.7909185   0.1997919 
  4.2109375    4.36450838   0.79109217  0.2374768 
  3.734375     3.8155421    0.79125855  0.2677824 
  3.49479167   3.42314839   0.7914176   0.2861401 
  3.04427083   3.23804093   0.79156932  0.3284859 
  3.3046875    3.24573689   0.79171368  0.3026005 
  3.40104167   3.37759158   0.79185068  0.2940276 
  3.48958333   3.52993937   0.7919803   0.2865672 
  3.4453125    3.59912904   0.79210253  0.2902494 
  3.5859375    3.53577915   0.79221739  0.2788671 
  3.4453125    3.36891168   0.79232485  0.2902494 
  3.03385417   3.16428682   0.79242494  0.3296137 
  2.67708333   2.97273121   0.79251764  0.3735409 
  2.40364583   2.80895329   0.79260298  0.4160347 
  2.30208333   2.65328951   0.79268096  0.4343891 
  1.97135417   2.4742287    0.79275159  0.5072655 
  1.90625      2.26206794   0.7928149   0.5245902 
  1.859375     2.03813217   0.7928709   0.5378151 
  1.75260417   1.83469726   0.79291963  0.5705795 
  1.60677083   1.67788065   0.79296109  0.6223663 
  1.61458333   1.58160157   0.79299533  0.6193548 
  1.5          1.54628831   0.79302239  0.6666667 
  1.53385417   1.55949542   0.79304228  0.6519525 
  1.44791667   1.59887953   0.79305506  0.6906475 
  1.65885417   1.63797089   0.79306076  0.6028257 
  1.45833333   1.65750871   0.79305943  0.6857143 
  1.609375     1.65812728   0.79305113  0.6213592 
  1.6171875    1.65737247   0.79303589  0.6183575 
  1.70833333   1.67335888   0.79301378  0.5853659 
  1.86979167   1.71270888   0.79298485  0.5348189 
  1.81510417   1.76637547   0.79294917  0.5509326 
  2.05729167   1.8104404    0.7929068   0.4860759 
  1.94270833   1.81433306   0.7928578   0.5147453 
  2.05208333   1.76009083   0.79280224  0.4873096 
  1.67447917   1.65743289   0.79274021  0.5972006 
  1.53125      1.53490632   0.79267177  0.6530612 
  1.265625     1.4216032    0.792597    0.7901235 
  1.328125     1.33775267   0.79251599  0.7529412 
  1.1875       1.29232232   0.79242883  0.8421053 
  1.11979167   1.28279257   0.79233559  0.8930233 
  1.26822917   1.29656968   0.79223637  0.788501  
  1.265625     1.31406062   0.79213127  0.7901235 
  1.28125      1.31403809   0.79202038  0.7804878 
  1.33854167   1.28388574   0.79190381  0.7470817 
  1.21614583   1.22618273   0.79178165  0.8222698 
  1.13802083   1.15372063   0.79165401  0.8787185 
  0.8828125    1.08002516   0.791521    1.1327434 
  0.953125     1.01501938   0.79138273  1.0491803 
  0.8671875    0.96439234   0.79123932  1.1531532 
  0.84635417   0.93034864   0.79109089  1.1815385 
  0.77604167   0.91269387   0.79093754  1.2885906 
  0.82552083   0.91013776   0.79077941  1.2113565 
  0.92447917   0.92083086   0.79061662  1.0816901 
  0.86458333   0.94251613   0.7904493   1.1566265 
  0.81510417   0.97196476   0.79027757  1.2268371 
  0.8828125    1.00435985   0.79010157  1.1327434 
  0.984375     1.03309432   0.78992144  1.015873  
  0.96354167   1.050219     0.78973732  1.0378378 
  0.9296875    1.04972757   0.78954933  1.0756303 
  0.96875      1.03202709   0.78935763  1.0322581 
  0.890625     1.00387754   0.78916237  1.122807  
  0.83072917   0.97381792   0.78896367  1.2037618 
  0.85677083   0.94864474   0.78876171  1.1671733 
  0.7734375    0.93226673   0.78855662  1.2929293 
  0.89322917   0.92556967   0.78834856  1.1195335 
  0.90885417   0.9266089    0.78813769  1.1002865 
  0.859375     0.93122379   0.78792416  1.1636364 
  0.8828125    0.93405042   0.78770814  1.1327434 
  0.91145833   0.93049858   0.78748978  1.0971429 
  0.8515625    0.91922252   0.78726924  1.1743119 
  0.89583333   0.90260154   0.7870467   1.1162791 
  0.77604167   0.88412218   0.78682232  1.2885906 
  0.8359375    0.866969     0.78659626  1.1962617 
  0.84635417   0.85287019   0.7863687   1.1815385 
  0.76041667   0.84240941   0.78613981  1.3150685 
  0.7890625    0.83514399   0.78590975  1.2673267 
  0.7109375    0.83000482   0.78567871  1.4065934 
  0.7734375    0.82583706   0.78544686  1.2929293 
  0.71875      0.82192095   0.78521437  1.3913043 
  0.796875     0.81814127   0.78498143  1.254902  
  0.734375     0.81476444   0.7847482   1.3617021 
  0.8359375    0.81199936   0.78451488  1.1962617 
  0.73697917   0.81002225   0.78428164  1.3568905 
  0.73177083   0.8088872    0.78404866  1.366548  
  0.80989583   0.80852409   0.78381613  1.2347267 
  0.78385417   0.80877843   0.78358423  1.2757475 
  0.69270833   0.80947399   0.78335313  1.443609  
  0.75         0.81052621   0.78312303  1.3333333 
  0.70052083   0.81206189   0.78289411  1.4275093 
  0.83072917   0.81437691   0.78266656  1.2037618 
  0.796875     0.81768626   0.78244055  1.254902  
  0.72395833   0.82188832   0.78221628  1.381295  
  0.79947917   0.82644448   0.78199392  1.2508143 
  0.77083333   0.83037034   0.78177367  1.2972973 
  0.86458333   0.83240984   0.78155571  1.1566265 
  0.8125       0.83163129   0.78134022  1.2307692 
  0.73177083   0.8281449    0.78112739  1.366548  
  0.82552083   0.82305285   0.7809174   1.2113565 
  0.6953125    0.81772272   0.78071044  1.4382022 
  0.77864583   0.81324816   0.78050669  1.2842809 
  0.76822917   0.81026047   0.78030632  1.3016949 
  0.78645833   0.80890315   0.78010954  1.2715232 
  0.6953125    0.80886336   0.7799165   1.4382022 
  0.72916667   0.80946609   0.7797274   1.3714286 
  0.73697917   0.80982583   0.77954241  1.3568905 
  0.78645833   0.80915797   0.77936172  1.2715232 
  0.77864583   0.80717907   0.77918549  1.2842809 
  0.74739583   0.80419086   0.7790139   1.3379791 
  0.703125     0.80074558   0.77884713  1.4222222 
  0.83333333   0.79733731   0.77868535  1.2       
  0.76302083   0.7943014    0.77852872  1.3105802 
  0.73958333   0.79181513   0.77837743  1.3521127 
  0.71354167   0.78991519   0.77823162  1.4014599 
  0.8125       0.78853955   0.77809148  1.2307692 
  0.79166667   0.78757762   0.77795716  1.2631579 
  0.81770833   0.78691332   0.77782882  1.2229299 
  0.7578125    0.78644765   0.77770662  1.3195876 
  0.73958333   0.7861054    0.77759072  1.3521127 
  0.765625     0.78583292   0.77748127  1.3061224 
  0.71875      0.7855944    0.77737842  1.3913043 
  0.703125     0.7853721    0.77728233  1.4222222 
  0.76041667   0.78516556   0.77719313  1.3150685 
  0.77864583   0.78498565   0.77711097  1.2842809 
  0.74739583   0.784849     0.77703599  1.3379791 
  0.78125      0.78477867   0.77696832  1.28      
  0.7109375    0.7848098    0.77690811  1.4065934 
  0.66145833   0.78499814   0.77685547  1.511811  
  0.703125     0.78542779   0.77681055  1.4222222 
  0.78125      0.78621291   0.77677345  1.28      
  0.74479167   0.78748473   0.7767443   1.3426573 
  0.76041667   0.78935746   0.77672323  1.3150685 
  0.71354167   0.7918771    0.77671033  1.4014599 
  0.73958333   0.7949604    0.77670572  1.3521127 
  0.7734375    0.79834859   0.7767095   1.2929293 
  0.77083333   0.80158007   0.77672178  1.2972973 
  0.8359375    0.80402176   0.77674265  1.1962617 
  0.8125       0.80504566   0.7767722   1.2307692 
  0.78385417   0.80440245   0.77681052  1.2757475 
  0.7421875    0.80244536   0.7768577   1.3473684 
  0.83333333   0.79989226   0.77691381  1.2       
  0.75         0.79745545   0.77697893  1.3333333 
  0.82552083   0.79564533   0.77705313  1.2113565 
  0.765625     0.79470231   0.77713646  1.3061224 
  0.74479167   0.79461657   0.77722901  1.3426573 
  0.7578125    0.79515372   0.77733081  1.3195876 
  0.6796875    0.79591895   0.77744192  1.4712644 
  0.83854167   0.79646295   0.77756238  1.1925466 
  0.73958333   0.79646905   0.77769224  1.3521127 
  0.69791667   0.79594323   0.77783152  1.4328358 
  0.73958333   0.79517449   0.77798026  1.3521127 
  0.77864583   0.79451876   0.77813848  1.2842809 
  0.77083333   0.79424659   0.7783062   1.2972973 
  0.77604167   0.7944787    0.77848344  1.2885906 
  0.66927083   0.79516854   0.77867019  1.4941634 
  0.7109375    0.7961122    0.77886646  1.4065934 
  0.69791667   0.79699167   0.77907225  1.4328358 
  0.74479167   0.79748493   0.77928755  1.3426573 
  0.80729167   0.797447     0.77951234  1.2387097 
  0.72916667   0.79700695   0.77974659  1.3714286 
  0.82291667   0.7964681    0.77999029  1.2151899 
  0.72135417   0.79616029   0.78024339  1.3862816 
  0.78125      0.79637957   0.78050586  1.28      
  0.75520833   0.79738988   0.78077765  1.3241379 
  0.73958333   0.79944673   0.78105871  1.3521127 
  0.81510417   0.80281974   0.78134897  1.2268371 
  0.7421875    0.80778419   0.78164839  1.3473684 
  0.69010417   0.81457032   0.78195687  1.4490566 
  0.734375     0.82328102   0.78227435  1.3617021 
  0.71354167   0.83378533   0.78260075  1.4014599 
  0.76822917   0.84552376   0.78293596  1.3016949 
  0.81510417   0.85732743   0.78327991  1.2268371 
  0.83854167   0.8673892    0.78363247  1.1925466 
  0.796875     0.87361936   0.78399355  1.254902  
  0.8125       0.8747265    0.78436302  1.2307692 
  0.88541667   0.87133394   0.78474077  1.1294118 
  0.8125       0.86571072   0.78512666  1.2307692 
  0.875        0.8604857    0.78552056  1.1428571 
  0.7265625    0.85770119   0.78592234  1.3763441 
  0.7265625    0.85846095   0.78633183  1.3763441 
  0.77083333   0.86287745   0.78674889  1.2972973 
  0.796875     0.87015545   0.78717335  1.254902  
  0.77604167   0.87888921   0.78760504  1.2885906 
  0.828125     0.88763965   0.7880438   1.2075472 
  0.84375      0.89561173   0.78848944  1.1851852 
  0.8671875    0.90300654   0.78894178  1.1531532 
  0.84114583   0.91071993   0.78940062  1.1888545 
  0.86458333   0.9195747    0.78986575  1.1566265 
  0.83854167   0.92973064   0.79033699  1.1925466 
  0.83854167   0.94059524   0.79081411  1.1925466 
  0.7734375    0.95120607   0.79129689  1.2929293 
  0.87760417   0.96130651   0.79178512  1.1394659 
  0.91145833   0.97236516   0.79227856  1.0971429 
  0.9609375    0.98684273   0.79277697  1.0406504 
  0.91927083   1.00643193   0.79328012  1.0878187 
  0.859375     1.03074658   0.79378775  1.1636364 
  0.77083333   1.05666341   0.79429961  1.2972973 
  0.8515625    1.07830624   0.79481544  1.1743119 
  0.80729167   1.08877831   0.79533497  1.2387097 
  0.85677083   1.0838935    0.79585795  1.1671733 
  0.91145833   1.06487209   0.79638408  1.0971429 
  0.91666667   1.03694382   0.79691308  1.0909091 
  0.82552083   1.00645856   0.79744468  1.2113565 
  0.83072917   0.97914875   0.79797858  1.2037618 
  0.83854167   0.95901978   0.79851448  1.1925466 
  0.88802083   0.94755395   0.79905207  1.1260997 
  0.84635417   0.94361923   0.79959106  1.1815385 
  0.80989583   0.94395004   0.80013114  1.2347267 
  0.80729167   0.94399924   0.80067197  1.2387097 
  0.87239583   0.93958732   0.80121326  1.1462687 
  0.7734375    0.92896954   0.80175466  1.2929293 
  0.81770833   0.91341578   0.80229586  1.2229299 
  0.83333333   0.89566533   0.80283652  1.2       
  0.88020833   0.87831828   0.8033763   1.1360947 
  0.79427083   0.86318184   0.80391487  1.2590164 
  0.84635417   0.85117472   0.80445188  1.1815385 
  0.7265625    0.84242791   0.80498698  1.3763441 
  0.74739583   0.83653469   0.80551982  1.3379791 
  0.76041667   0.83284028   0.80605006  1.3150685 
  0.72135417   0.83071408   0.80657734  1.3862816 
  0.79427083   0.82970028   0.8071013   1.2590164 
  0.74479167   0.82954691   0.80762157  1.3426573 
  0.75520833   0.83018933   0.8081378   1.3241379 
  0.7578125    0.83172648   0.80864963  1.3195876 
  0.72916667   0.83439391   0.80915668  1.3714286 
  0.76041667   0.83852242   0.80965859  1.3150685 
  0.671875     0.84447297   0.81015499  1.4883721 
  0.75         0.85253429   0.81064551  1.3333333 
  0.94010417   0.8628109    0.81112977  1.0637119 
  0.84375      0.87511281   0.81160742  1.1851852 
  0.80208333   0.88885418   0.81207807  1.2467532 
  0.9140625    0.9029663    0.81254136  1.0940171 
  0.75520833   0.91595783   0.81299691  1.3241379 
  0.953125     0.92645536   0.81344435  1.0491803 
  0.91927083   0.93399087   0.81388331  1.0878187 
  0.8828125    0.93901971   0.81431342  1.1327434 
  0.9453125    0.94204282   0.81473431  1.0578512 
  0.81770833   0.94306423   0.81514562  1.2229299 
  0.9453125    0.94198431   0.81554697  1.0578512 
  0.96354167   0.93945316   0.81593801  1.0378378 
  0.96354167   0.93708334   0.81631838  1.0378378 
  0.92447917   0.93688656   0.8166877   1.0816901 
  0.92447917   0.94070238   0.81704564  1.0816901 
  0.93229167   0.95011518   0.81739183  1.0726257 
  0.9921875    0.96677797   0.81772592  1.007874  
  0.93489583   0.99268562   0.81804757  1.0696379 
  1.00260417   1.02979428   0.81835644  0.9974026 
  1            1.07910509   0.81865219  1         
  1.09635417   1.13982239   0.81893448  0.912114  
  1.234375     1.20882806   0.81920299  0.8101266 
  1.2890625    1.28058808   0.81945739  0.7757576 
  1.4296875    1.34812656   0.81969736  0.6994536 
  1.40364583   1.40473484   0.8199226   0.7124304 
  1.47135417   1.4442171    0.82013279  0.679646  
  1.41927083   1.46049211   0.82032764  0.7045872 
  1.32552083   1.45089935   0.82050685  0.7544204 
  1.44270833   1.42102743   0.82067013  0.6931408 
  1.35677083   1.3830428    0.82081722  0.7370441 
  1.3359375    1.34875672   0.82094783  0.748538  
  1.2890625    1.3248101    0.8210617   0.7757576 
  1.26041667   1.31150312   0.82115858  0.7933884 
  1.17447917   1.30417674   0.82123822  0.8514412 
  1.26822917   1.29673518   0.82130038  0.788501  
  1.23958333   1.28497227   0.82134484  0.8067227 
  1.30729167   1.26634283   0.82137137  0.7649402 
  1.1640625    1.23854681   0.82137976  0.8590604 
  1.21354167   1.20096402   0.82136983  0.8240343 
  1.0546875    1.15673215   0.82134137  0.9481481 
  1.0703125    1.11144421   0.8212942   0.9343066 
  0.96875      1.06993304   0.82122817  1.0322581 
  1.109375     1.03445389   0.82114312  0.9014085 
  0.90104167   1.00474433   0.82103889  1.1098266 
  1.00260417   0.97905133   0.82091537  0.9974026 
  0.8515625    0.95574407   0.82077242  1.1743119 
  0.9140625    0.93432224   0.82060994  1.0940171 
  0.890625     0.91512553   0.82042783  1.122807  
  0.859375     0.89861452   0.82022602  1.1636364 
  0.8671875    0.88506019   0.82000443  1.1531532 
  0.73958333   0.8745142    0.819763    1.3521127 
  0.7890625    0.8668041    0.8195017   1.2673267 
  0.7734375    0.86157426   0.81922049  1.2929293 
  0.88802083   0.85838611   0.81891937  1.1260997 
  0.80989583   0.85681876   0.81859833  1.2347267 
  0.8515625    0.85656759   0.81825738  1.1743119 
  0.79427083   0.85751795   0.81789657  1.2590164 
  0.828125     0.85982919   0.81751592  1.2075472 
  0.890625     0.86404921   0.81711551  1.122807  
  0.84635417   0.8712887    0.81669541  1.1815385 
  0.8125       0.88341932   0.81625571  1.2307692 
  0.88802083   0.90322703   0.81579652  1.1260997 
  0.87760417   0.93438502   0.81531796  1.1394659 
  0.9375       0.98098727   0.81482017  1.0666667 
  1.10677083   1.04660743   0.8143033   0.9035294 
  0.9921875    1.13284172   0.81376753  1.007874  
  1.16666667   1.23777462   0.81321305  0.8571429 
  1.35416667   1.35444692   0.81264006  0.7384615 
  1.375        1.4700942    0.81204878  0.7272727 
  1.59895833   1.56659969   0.81143946  0.6254072 
  1.72135417   1.62394626   0.81081234  0.580938  
  1.66927083   1.62855488   0.8101677   0.599064  
  1.53645833   1.58198223   0.80950582  0.6508475 
  1.4609375    1.50086162   0.80882702  0.684492  
  1.453125     1.40801108   0.80813162  0.688172  
  1.29427083   1.32362198   0.80741994  0.7726358 
  1.15625      1.26128665   0.80669236  0.8648649 
  1.03645833   1.22685248   0.80594924  0.9648241 
  1.18229167   1.21875563   0.80519098  0.845815  
  1.16927083   1.22894804   0.80441797  0.8552339 
  1.140625     1.24463035   0.80363064  0.8767123 
  1.25520833   1.2513954    0.80282943  0.7966805 
  1.16145833   1.23819427   0.8020148   0.8609865 
  1.25260417   1.20206444   0.80118721  0.7983368 
  1.10677083   1.14836598   0.80034715  0.9035294 
  1.02604167   1.08631289   0.79949512  0.9746193 
  1.01822917   1.024495     0.79863165  0.9820972 
  0.84114583   0.96899915   0.79775725  1.1888545 
  0.84114583   0.92314735   0.79687248  1.1888545 
  0.72395833   0.88780999   0.79597791  1.381295  
  0.7421875    0.86212741   0.7950741   1.3473684 
  0.828125     0.84426635   0.79416164  1.2075472 
  0.7578125    0.83214916   0.79324114  1.3195876 
  0.8203125    0.82391396   0.79231322  1.2190476 
  0.859375     0.81814023   0.79137849  1.1636364 
  0.7890625    0.81386087   0.79043761  1.2673267 
  0.84635417   0.8104775    0.78949122  1.1815385 
  0.76041667   0.80764782   0.78853998  1.3150685 
  0.72395833   0.80518864   0.78758457  1.381295  
  0.69010417   0.80301199   0.78662568  1.4490566 
  0.7734375    0.80108666   0.78566399  1.2929293 
  0.79166667   0.79942114   0.7847002   1.2631579 
  0.70052083   0.79805473   0.78373503  1.4275093 
  0.65364583   0.79704919   0.78276919  1.5298805 
  0.73697917   0.79647383   0.78180341  1.3568905 
  0.67708333   0.79638116   0.78083841  1.4769231 
  0.79947917   0.79677696   0.77987493  1.2508143 
  0.81770833   0.79758545   0.77891372  1.2229299 
  0.78125      0.79862554   0.7779555   1.28      
  0.75         0.79959969   0.77700104  1.3333333 
  0.75520833   0.80010728   0.77605108  1.3241379 
  0.74479167   0.7997352    0.77510637  1.3426573 
  0.828125     0.79825858   0.77416765  1.2075472 
  0.70833333   0.7958062    0.77323568  1.4117647 
  0.7421875    0.7927876    0.77231121  1.3473684 
  0.828125     0.78967384   0.77139497  1.2075472 
  0.78125      0.78684637   0.77048772  1.28      
  0.72916667   0.78454598   0.76959018  1.3714286 
  0.79947917   0.78285994   0.76870309  1.2508143 
  0.81510417   0.78172978   0.76782718  1.2268371 
  0.69791667   0.78097152   0.76696315  1.4328358 
  0.828125     0.78031335   0.76611171  1.2075472 
  0.828125     0.77945563   0.76527357  1.2075472 
  0.74739583   0.77817866   0.76444941  1.3379791 
  0.76041667   0.77644413   0.76363989  1.3150685 
  0.74479167   0.77438439   0.76284569  1.3426573 
  0.77083333   0.77219495   0.76206743  1.2972973 
  0.75520833   0.77004799   0.76130576  1.3241379 
  0.75520833   0.76806322   0.76056128  1.3241379 
  0.75         0.76630491   0.75983458  1.3333333 
  0.76041667   0.7647887    0.75912624  1.3150685 
  0.73177083   0.76349596   0.7584368   1.366548  
  0.72395833   0.76238938   0.75776679  1.381295  
  0.79427083   0.76142712   0.75711672  1.2590164 
  0.74479167   0.76057211   0.75648706  1.3426573 
  0.75520833   0.75979644   0.75587827  1.3241379 
  0.75260417   0.75908141   0.75529077  1.3287197 
  0.7734375    0.75841584   0.75472496  1.2929293 
  0.7734375    0.75779391   0.7541812   1.2929293 
  0.72395833   0.7572137    0.75365982  1.381295  
  0.72916667   0.75667657   0.75316113  1.3714286 
  0.8125       0.75618749   0.75268539  1.2307692 
  0.7890625    0.75575614   0.75223283  1.2673267 
  0.8203125    0.75539717   0.75180364  1.2190476 
  0.73697917   0.75512828   0.75139799  1.3568905 
  0.8125       0.75496539   0.75101599  1.2307692 
  0.640625     0.75491646   0.75065771  1.5609756 
  0.78385417   0.75497421   0.7503232   1.2757475 
  0.72395833   0.75511049   0.75001245  1.381295  
  0.7109375    0.75527222   0.7497254   1.4065934 
  0.79166667   0.75538266   0.74946198  1.2631579 
  0.89322917   0.75535439   0.74922203  1.1195335 
  0.6796875    0.75512328   0.74900537  1.4712644 
  0.76041667   0.75469009   0.74881178  1.3150685 
  0.85416667   0.75412296   0.74864098  1.1707317 
  0.7578125    0.75351768   0.74849264  1.3195876 
  0.78125      0.75296109   0.7483664   1.28      
  0.74739583   0.75251442   0.74826182  1.3379791 
  0.7265625    0.75220852   0.74817843  1.3763441 
  0.71354167   0.75204354   0.74811573  1.4014599 
  0.74479167   0.75199213   0.74807314  1.3426573 
  0.75260417   0.75200523   0.74805004  1.3287197 
  0.68489583   0.75202124   0.74804576  1.460076  
  0.80729167   0.75198358   0.74805959  1.2387097 
  0.81770833   0.75186422   0.74809077  1.2229299 
  0.79427083   0.75167394   0.74813849  1.2590164 
  0.74479167   0.75144782   0.74820189  1.3426573 
  0.765625     0.75122381   0.74828006  1.3061224 
  0.734375     0.75103129   0.74837207  1.3617021 
  0.71614583   0.75088835   0.74847691  1.3963636 
  0.77083333   0.75080243   0.74859356  1.2972973 
  0.69010417   0.75077219   0.74872095  1.4490566 
  0.71614583   0.7507906    0.74885798  1.3963636 
  0.7109375    0.75084805   0.74900349  1.4065934 
  0.703125     0.7509348    0.74915631  1.4222222 
  0.734375     0.75104246   0.74931524  1.3617021 
  0.89322917   0.75116451   0.74947905  1.1195335 
  0.75520833   0.75129619   0.74964648  1.3241379 
  0.70833333   0.75143407   0.74981627  1.4117647 
  0.71614583   0.75157561   0.74998712  1.3963636 
  0.76041667   0.7517188    0.75015774  1.3150685 
  0.71875      0.75186195   0.75032683  1.3913043 
  0.765625     0.7520035    0.75049308  1.3061224 
  0.69010417   0.752142     0.75065521  1.4490566 
  0.75         0.75227605   0.75081192  1.3333333 
  0.73177083   0.75240427   0.75096195  1.366548  
  0.79427083   0.75252538   0.75110407  1.2590164 
  0.77604167   0.75263808   0.75123707  1.2885906 
  0.67708333   0.75274117   0.75135979  1.4769231 
  0.71875      0.75283349   0.75147111  1.3913043 
  0.73177083   0.75291394   0.75156999  1.366548  
  0.81770833   0.75298151   0.75165544  1.2229299 
  0.7265625    0.75303526   0.75172656  1.3763441 
  0.78385417   0.75307435   0.75178255  1.2757475 
  0.77864583   0.75309805   0.7518227   1.2842809 
  0.71875      0.75310576   0.75184641  1.3913043 
  0.83333333   0.75309697   0.75185323  1.2       
  0.74739583   0.75307137   0.75184284  1.3379791 
  0.7734375    0.75302878   0.75181508  1.2929293 
  0.7421875    0.75296918   0.75176998  1.3473684 
  0.73177083   0.75289279   0.75170773  1.366548  
  0.76041667   0.75279999   0.75162875  1.3150685 
  0.78385417   0.75269143   0.75153369  1.2757475 
  0.7734375    0.75256797   0.75142344  1.2929293 
  0.7265625    0.75243077   0.75129916  1.3763441 
  0.73177083   0.75228125   0.75116228  1.366548  
  0.8046875    0.75212117   0.75101456  1.2427184 
  0.7109375    0.7519526    0.75085811  1.4065934 
  0.7578125    0.75177799   0.75069537  1.3195876 
  0.74479167   0.75160018   0.75052917  1.3426573 
  0.69791667   0.7514224    0.75036278  1.4328358 
  0.75         0.75124834   0.75019989  1.3333333 
  0.80208333   0.75108217   0.75004466  1.2467532 
  0.77083333   0.75092855   0.74990177  1.2972973 
  0.8125       0.75077656   0.74977644  1.2307692 
  0.7265625    0.75066429   0.74967445  1.3763441 
  0.80729167   0.75058194   0.74960219  1.2387097 
  0.78645833   0.75053656   0.74956671  1.2715232 
  0.70572917   0.75053587   0.74957573  1.4169742 
  0.80989583   0.75058832   0.74963772  1.2347267 
  0.76302083   0.75070314   0.74976191  1.3105802 
#--eof--eof--eof--eof--eof--eof--eof--eof--eof--eof--eof--eof--eof--eof--eof--#
